                   25
 energy=   0.0000000000000000     
C           3.688984   -0.715255   -0.000009
C           2.466475   -1.408958   -0.000004
C           1.239074   -0.731813    0.000007
C           1.264439    0.677450    0.000008
C           2.496371    1.361856    0.000003
C           3.707147    0.672889   -0.000006
C           0.000000   -1.430266    0.000013
C           0.000000    1.456185    0.000017
C          -1.264439    0.677450    0.000001
C          -1.239074   -0.731813    0.000006
C          -2.466475   -1.408958    0.000002
H          -2.469794   -2.494390    0.000007
C          -3.688984   -0.715255   -0.000009
C          -3.707147    0.672889   -0.000018
C          -2.496371    1.361856   -0.000013
H           0.000000   -2.514064    0.000016
H           4.616294   -1.275851   -0.000015
H           2.469794   -2.494390   -0.000010
H           2.490988    2.447849    0.000009
H           4.644565    1.213937   -0.000009
H          -0.000002    2.150680    0.861657
H          -4.616294   -1.275851   -0.000012
H          -4.644565    1.213937   -0.000029
H          -2.490988    2.447849   -0.000018
H           0.000002    2.150728   -0.861582
                   25
 energy=   0.0000000000000000     
C           3.688984   -0.715255   -0.000009
C           2.466475   -1.408958   -0.000003
C           1.239074   -0.731813    0.000007
C           1.264439    0.677450    0.000007
C           2.496371    1.361856    0.000001
C           3.707147    0.672889   -0.000007
C           0.000000   -1.430266    0.000013
C           0.000000    1.456185    0.000017
C          -1.264439    0.677450    0.000002
C          -1.239074   -0.731813    0.000006
C          -2.466475   -1.408958    0.000001
H          -2.469794   -2.494390    0.000005
C          -3.688984   -0.715255   -0.000009
C          -3.707147    0.672889   -0.000017
C          -2.496371    1.361856   -0.000011
H           0.000000   -2.514064    0.000016
H           4.616294   -1.275851   -0.000015
H           2.469794   -2.494390   -0.000008
H           2.490988    2.447849    0.000006
H           4.644565    1.213937   -0.000011
H          -0.000002    2.150680    0.861657
H          -4.616294   -1.275851   -0.000012
H          -4.644565    1.213937   -0.000027
H          -2.490988    2.447849   -0.000015
H           0.000002    2.150728   -0.861582
                   25
 energy=   0.0000000000000000     
C           3.688984   -0.715255   -0.000009
C           2.466475   -1.408958   -0.000003
C           1.239074   -0.731813    0.000007
C           1.264439    0.677450    0.000006
C           2.496371    1.361856   -0.000001
C           3.707147    0.672889   -0.000009
C           0.000000   -1.430266    0.000013
C           0.000000    1.456185    0.000017
C          -1.264439    0.677450    0.000003
C          -1.239074   -0.731813    0.000006
C          -2.466475   -1.408958    0.000001
H          -2.469794   -2.494390    0.000003
C          -3.688984   -0.715255   -0.000009
C          -3.707147    0.672889   -0.000015
C          -2.496371    1.361856   -0.000009
H           0.000000   -2.514064    0.000016
H           4.616294   -1.275851   -0.000014
H           2.469794   -2.494390   -0.000006
H           2.490988    2.447849    0.000003
H           4.644565    1.213937   -0.000013
H          -0.000002    2.150680    0.861657
H          -4.616294   -1.275851   -0.000013
H          -4.644565    1.213937   -0.000025
H          -2.490988    2.447849   -0.000012
H           0.000002    2.150728   -0.861582
                   25
 energy=   0.0000000000000000     
C           3.688984   -0.715255   -0.000009
C           2.466475   -1.408958   -0.000002
C           1.239074   -0.731813    0.000007
C           1.264439    0.677450    0.000006
C           2.496371    1.361856   -0.000002
C           3.707147    0.672889   -0.000010
C           0.000000   -1.430266    0.000013
C           0.000000    1.456185    0.000017
C          -1.264439    0.677450    0.000003
C          -1.239074   -0.731813    0.000006
C          -2.466475   -1.408958   -0.000000
H          -2.469794   -2.494390    0.000001
C          -3.688984   -0.715255   -0.000009
C          -3.707147    0.672889   -0.000014
C          -2.496371    1.361856   -0.000008
H           0.000000   -2.514064    0.000016
H           4.616294   -1.275851   -0.000014
H           2.469794   -2.494390   -0.000004
H           2.490988    2.447849   -0.000000
H           4.644565    1.213937   -0.000016
H          -0.000002    2.150680    0.861657
H          -4.616294   -1.275851   -0.000013
H          -4.644565    1.213937   -0.000022
H          -2.490988    2.447849   -0.000009
H           0.000002    2.150728   -0.861582
                   25
 energy=   0.0000000000000000     
C           3.688984   -0.715255   -0.000009
C           2.466475   -1.408958   -0.000001
C           1.239074   -0.731813    0.000007
C           1.264439    0.677450    0.000005
C           2.496371    1.361856   -0.000004
C           3.707147    0.672889   -0.000011
C           0.000000   -1.430266    0.000013
C           0.000000    1.456185    0.000017
C          -1.264439    0.677450    0.000004
C          -1.239074   -0.731813    0.000006
C          -2.466475   -1.408958   -0.000001
H          -2.469794   -2.494390   -0.000001
C          -3.688984   -0.715255   -0.000009
C          -3.707147    0.672889   -0.000013
C          -2.496371    1.361856   -0.000006
H           0.000000   -2.514064    0.000016
H           4.616294   -1.275851   -0.000014
H           2.469794   -2.494390   -0.000002
H           2.490988    2.447849   -0.000003
H           4.644565    1.213937   -0.000018
H          -0.000002    2.150680    0.861657
H          -4.616294   -1.275851   -0.000013
H          -4.644565    1.213937   -0.000020
H          -2.490988    2.447849   -0.000006
H           0.000002    2.150728   -0.861582
                   25
 energy=   0.0000000000000000     
C           3.688984   -0.715255   -0.000009
C           2.466475   -1.408958   -0.000001
C           1.239074   -0.731813    0.000006
C           1.264439    0.677450    0.000004
C           2.496371    1.361856   -0.000006
C           3.707147    0.672889   -0.000013
C           0.000000   -1.430266    0.000013
C           0.000000    1.456185    0.000017
C          -1.264439    0.677450    0.000005
C          -1.239074   -0.731813    0.000007
C          -2.466475   -1.408958   -0.000001
H          -2.469794   -2.494390   -0.000002
C          -3.688984   -0.715255   -0.000009
C          -3.707147    0.672889   -0.000011
C          -2.496371    1.361856   -0.000004
H           0.000000   -2.514064    0.000016
H           4.616294   -1.275851   -0.000013
H           2.469794   -2.494390   -0.000001
H           2.490988    2.447849   -0.000006
H           4.644565    1.213937   -0.000020
H          -0.000002    2.150680    0.861657
H          -4.616294   -1.275851   -0.000014
H          -4.644565    1.213937   -0.000018
H          -2.490988    2.447849   -0.000003
H           0.000002    2.150728   -0.861582
                   25
 energy=   0.0000000000000000     
C           3.688984   -0.715255   -0.000009
C           2.466475   -1.408958    0.000000
C           1.239074   -0.731813    0.000006
C           1.264439    0.677450    0.000003
C           2.496371    1.361856   -0.000008
C           3.707147    0.672889   -0.000014
C           0.000000   -1.430266    0.000013
C           0.000000    1.456185    0.000017
C          -1.264439    0.677450    0.000006
C          -1.239074   -0.731813    0.000007
C          -2.466475   -1.408958   -0.000002
H          -2.469794   -2.494390   -0.000004
C          -3.688984   -0.715255   -0.000009
C          -3.707147    0.672889   -0.000010
C          -2.496371    1.361856   -0.000002
H           0.000000   -2.514064    0.000016
H           4.616294   -1.275851   -0.000013
H           2.469794   -2.494390    0.000001
H           2.490988    2.447849   -0.000009
H           4.644565    1.213937   -0.000022
H          -0.000002    2.150680    0.861657
H          -4.616294   -1.275851   -0.000014
H          -4.644565    1.213937   -0.000016
H          -2.490988    2.447849    0.000000
H           0.000002    2.150728   -0.861582
                   25
 energy=   0.0000000000000000     
C           3.688984   -0.715255   -0.000009
C           2.466475   -1.408958    0.000001
C           1.239074   -0.731813    0.000006
C           1.264439    0.677450    0.000003
C           2.496371    1.361856   -0.000009
C           3.707147    0.672889   -0.000015
C           0.000000   -1.430266    0.000013
C           0.000000    1.456185    0.000017
C          -1.264439    0.677450    0.000006
C          -1.239074   -0.731813    0.000007
C          -2.466475   -1.408958   -0.000003
H          -2.469794   -2.494390   -0.000006
C          -3.688984   -0.715255   -0.000009
C          -3.707147    0.672889   -0.000009
C          -2.496371    1.361856   -0.000001
H           0.000000   -2.514064    0.000016
H           4.616294   -1.275851   -0.000013
H           2.469794   -2.494390    0.000003
H           2.490988    2.447849   -0.000012
H           4.644565    1.213937   -0.000025
H          -0.000002    2.150680    0.861657
H          -4.616294   -1.275851   -0.000014
H          -4.644565    1.213937   -0.000013
H          -2.490988    2.447849    0.000003
H           0.000002    2.150728   -0.861582
                   25
 energy=   0.0000000000000000     
C           3.688984   -0.715255   -0.000009
C           2.466475   -1.408958    0.000001
C           1.239074   -0.731813    0.000006
C           1.264439    0.677450    0.000002
C           2.496371    1.361856   -0.000011
C           3.707147    0.672889   -0.000017
C           0.000000   -1.430266    0.000013
C           0.000000    1.456185    0.000017
C          -1.264439    0.677450    0.000007
C          -1.239074   -0.731813    0.000007
C          -2.466475   -1.408958   -0.000003
H          -2.469794   -2.494390   -0.000008
C          -3.688984   -0.715255   -0.000009
C          -3.707147    0.672889   -0.000007
C          -2.496371    1.361856    0.000001
H           0.000000   -2.514064    0.000016
H           4.616294   -1.275851   -0.000012
H           2.469794   -2.494390    0.000005
H           2.490988    2.447849   -0.000015
H           4.644565    1.213937   -0.000027
H          -0.000002    2.150680    0.861657
H          -4.616294   -1.275851   -0.000015
H          -4.644565    1.213937   -0.000011
H          -2.490988    2.447849    0.000006
H           0.000002    2.150728   -0.861582
                   25
 energy=   0.0000000000000000     
C           3.688984   -0.715255   -0.000009
C           2.466475   -1.408958    0.000002
C           1.239074   -0.731813    0.000006
C           1.264439    0.677450    0.000001
C           2.496371    1.361856   -0.000013
C           3.707147    0.672889   -0.000018
C           0.000000   -1.430266    0.000013
C           0.000000    1.456185    0.000017
C          -1.264439    0.677450    0.000008
C          -1.239074   -0.731813    0.000007
C          -2.466475   -1.408958   -0.000004
H          -2.469794   -2.494390   -0.000010
C          -3.688984   -0.715255   -0.000009
C          -3.707147    0.672889   -0.000006
C          -2.496371    1.361856    0.000003
H           0.000000   -2.514064    0.000016
H           4.616294   -1.275851   -0.000012
H           2.469794   -2.494390    0.000007
H           2.490988    2.447849   -0.000018
H           4.644565    1.213937   -0.000029
H          -0.000002    2.150680    0.861657
H          -4.616294   -1.275851   -0.000015
H          -4.644565    1.213937   -0.000009
H          -2.490988    2.447849    0.000009
H           0.000002    2.150728   -0.861582
