                   25
 energy=  -539.66372689577724     
C           3.688988   -0.715250   -0.000010
C           2.466479   -1.408959    0.000000
C           1.239069   -0.731810    0.000010
C           1.264439    0.677450    0.000010
C           2.496369    1.361859    0.000000
C           3.707148    0.672890   -0.000010
C           0.000000   -1.430269    0.000010
C           0.000000    1.456189    0.000020
C          -1.264439    0.677450    0.000000
C          -1.239069   -0.731810    0.000010
C          -2.466479   -1.408959    0.000000
H          -2.469789   -2.494389    0.000010
C          -3.688988   -0.715250   -0.000010
C          -3.707148    0.672890   -0.000020
C          -2.496369    1.361859   -0.000010
H           0.000000   -2.514059    0.000020
H           4.616298   -1.275849   -0.000020
H           2.469789   -2.494389   -0.000010
H           2.490989    2.447849    0.000010
H           4.644568    1.213939   -0.000010
H           0.000000    2.150679    0.861660
H          -4.616298   -1.275849   -0.000010
H          -4.644568    1.213939   -0.000030
H          -2.490989    2.447849   -0.000020
H           0.000000    2.150729   -0.861580
                   25
 energy=  -539.66430567547638     
C           3.689836   -0.720802   -0.000028
C           2.466512   -1.413890    0.000007
C           1.239606   -0.731020    0.000027
C           1.263992    0.681039    0.000020
C           2.497475    1.365873   -0.000022
C           3.707801    0.672434   -0.000042
C          -0.000000   -1.432977    0.000037
C          -0.000000    1.465240    0.000067
C          -1.263992    0.681039    0.000012
C          -1.239606   -0.731020    0.000026
C          -2.466512   -1.413890    0.000007
H          -2.466318   -2.497813    0.000024
C          -3.689836   -0.720802   -0.000029
C          -3.707801    0.672434   -0.000052
C          -2.497475    1.365873   -0.000032
H          -0.000000   -2.514672    0.000049
H           4.615566   -1.279831   -0.000048
H           2.466318   -2.497813    0.000007
H           2.493633    2.449999   -0.000023
H           4.644889    1.211343   -0.000061
H          -0.000000    2.155866    0.863570
H          -4.615566   -1.279831   -0.000041
H          -4.644889    1.211343   -0.000079
H          -2.493633    2.449999   -0.000049
H           0.000000    2.155992   -0.863332
                   25
 energy=  -539.66424665107263     
C           3.686354   -0.725553   -0.000054
C           2.463647   -1.416821    0.000018
C           1.238798   -0.729692    0.000053
C           1.263686    0.684987    0.000037
C           2.497729    1.366920   -0.000056
C           3.705181    0.669602   -0.000091
C           0.000000   -1.431572    0.000078
C          -0.000000    1.473430    0.000139
C          -1.263686    0.684987    0.000030
C          -1.238798   -0.729692    0.000051
C          -2.463647   -1.416821    0.000017
H          -2.460594   -2.500912    0.000045
C          -3.686354   -0.725553   -0.000056
C          -3.705181    0.669602   -0.000101
C          -2.497729    1.366920   -0.000064
H          -0.000000   -2.513325    0.000094
H           4.611962   -1.284558   -0.000091
H           2.460594   -2.500912    0.000032
H           2.497055    2.451021   -0.000073
H           4.643283    1.206354   -0.000137
H          -0.000000    2.162831    0.864781
H          -4.611962   -1.284558   -0.000088
H          -4.643283    1.206354   -0.000153
H          -2.497055    2.451021   -0.000094
H           0.000000    2.163074   -0.864304
                   25
 energy=  -539.66410462026727     
C           3.682854   -0.729948   -0.000079
C           2.460833   -1.419426    0.000029
C           1.237975   -0.728461    0.000078
C           1.263435    0.688687    0.000053
C           2.497909    1.367721   -0.000088
C           3.702548    0.666863   -0.000138
C           0.000000   -1.430035    0.000116
C          -0.000000    1.481013    0.000207
C          -1.263435    0.688687    0.000047
C          -1.237975   -0.728461    0.000075
C          -2.460833   -1.419426    0.000026
H          -2.455157   -2.503753    0.000065
C          -3.682854   -0.729948   -0.000083
C          -3.702548    0.666863   -0.000147
C          -2.497909    1.367721   -0.000095
H           0.000000   -2.511952    0.000136
H           4.608444   -1.288979   -0.000132
H           2.455157   -2.503754    0.000055
H           2.500274    2.451891   -0.000120
H           4.641676    1.201586   -0.000209
H          -0.000000    2.169391    0.865860
H          -4.608444   -1.288979   -0.000132
H          -4.641676    1.201586   -0.000223
H          -2.500274    2.451891   -0.000136
H           0.000000    2.169744   -0.865157
                   25
 energy=  -539.66388271957555     
C           3.679460   -0.734204   -0.000103
C           2.458126   -1.421937    0.000039
C           1.237196   -0.727293    0.000102
C           1.263193    0.692258    0.000068
C           2.498094    1.368491   -0.000119
C           3.700008    0.664225   -0.000183
C          -0.000000   -1.428550    0.000153
C           0.000000    1.488353    0.000273
C          -1.263193    0.692258    0.000063
C          -1.237196   -0.727293    0.000098
C          -2.458126   -1.421937    0.000035
H          -2.449910   -2.506483    0.000084
C          -3.679460   -0.734204   -0.000108
C          -3.700008    0.664225   -0.000192
C          -2.498094    1.368491   -0.000125
H           0.000000   -2.510630    0.000177
H           4.605051   -1.293246   -0.000171
H           2.449910   -2.506483    0.000078
H           2.503384    2.452742   -0.000166
H           4.640123    1.196982   -0.000279
H          -0.000000    2.175720    0.866897
H          -4.605051   -1.293246   -0.000175
H          -4.640123    1.196982   -0.000290
H          -2.503384    2.452742   -0.000177
H           0.000000    2.176179   -0.865976
                   25
 energy=  -539.66354503628042     
C           3.675705   -0.738919   -0.000130
C           2.455177   -1.424718    0.000050
C           1.236345   -0.726042    0.000129
C           1.262961    0.696225    0.000085
C           2.498285    1.369341   -0.000153
C           3.697174    0.661348   -0.000232
C          -0.000000   -1.426929    0.000193
C          -0.000000    1.496504    0.000345
C          -1.262961    0.696225    0.000081
C          -1.236345   -0.726042    0.000123
C          -2.455177   -1.424718    0.000045
H          -2.444147   -2.509496    0.000105
C          -3.675705   -0.738919   -0.000136
C          -3.697174    0.661348   -0.000241
C          -2.498285    1.369341   -0.000157
H           0.000000   -2.509179    0.000222
H           4.601322   -1.297940   -0.000214
H           2.444147   -2.509496    0.000103
H           2.506799    2.453667   -0.000216
H           4.638411    1.191926   -0.000356
H          -0.000000    2.182687    0.868049
H          -4.601322   -1.297940   -0.000222
H          -4.638411    1.191926   -0.000364
H          -2.506799    2.453667   -0.000222
H           0.000000    2.183261   -0.866889
                   25
 energy=  -539.66313547457833     
C           3.672108   -0.743377   -0.000156
C           2.452297   -1.427420    0.000061
C           1.235524   -0.724806    0.000154
C           1.262702    0.700000    0.000101
C           2.498478    1.370178   -0.000186
C           3.694444    0.658518   -0.000279
C          -0.000000   -1.425359    0.000232
C           0.000000    1.504326    0.000415
C          -1.262702    0.700000    0.000098
C          -1.235524   -0.724806    0.000147
C          -2.452298   -1.427420    0.000054
H          -2.438607   -2.512388    0.000125
C          -3.672108   -0.743377   -0.000163
C          -3.694444    0.658518   -0.000289
C          -2.498478    1.370178   -0.000189
H           0.000000   -2.507780    0.000265
H           4.597728   -1.302454   -0.000256
H           2.438607   -2.512388    0.000127
H           2.510082    2.454544   -0.000264
H           4.636750    1.187060   -0.000430
H          -0.000000    2.189400    0.869165
H          -4.597728   -1.302454   -0.000267
H          -4.636750    1.187060   -0.000436
H          -2.510082    2.454544   -0.000265
H           0.000000    2.190088   -0.867775
                   25
 energy=  -539.66252908748527     
C           3.667817   -0.748444   -0.000184
C           2.449073   -1.430563    0.000074
C           1.234643   -0.723607    0.000182
C           1.262517    0.704319    0.000119
C           2.498604    1.371121   -0.000223
C           3.691065    0.655430   -0.000332
C          -0.000000   -1.423535    0.000275
C          -0.000000    1.513444    0.000493
C          -1.262517    0.704319    0.000117
C          -1.234643   -0.723607    0.000175
C          -2.449073   -1.430563    0.000065
H          -2.432477   -2.515536    0.000148
C          -3.667817   -0.748444   -0.000193
C          -3.691065    0.655430   -0.000341
C          -2.498604    1.371121   -0.000224
H          -0.000000   -2.506162    0.000313
H           4.593610   -1.307430   -0.000302
H           2.432477   -2.515536    0.000154
H           2.513682    2.455384   -0.000317
H           4.634750    1.181625   -0.000511
H          -0.000000    2.196881    0.870430
H          -4.593610   -1.307430   -0.000318
H          -4.634750    1.181625   -0.000514
H          -2.513682    2.455384   -0.000313
H           0.000000    2.197693   -0.868786
                   25
 energy=  -539.66150010169338     
C           3.662468   -0.754138   -0.000211
C           2.446167   -1.433957    0.000086
C           1.233944   -0.723349    0.000209
C           1.262879    0.709164    0.000135
C           2.498328    1.371947   -0.000260
C           3.686519    0.652980   -0.000380
C          -0.000000   -1.421560    0.000314
C           0.000000    1.523987    0.000569
C          -1.262879    0.709164    0.000134
C          -1.233944   -0.723349    0.000200
C          -2.446167   -1.433957    0.000076
H          -2.426735   -2.518430    0.000169
C          -3.662468   -0.754138   -0.000221
C          -3.686519    0.652980   -0.000390
C          -2.498328    1.371947   -0.000260
H           0.000000   -2.504423    0.000358
H           4.589253   -1.312033   -0.000346
H           2.426735   -2.518430    0.000179
H           2.516923    2.455835   -0.000367
H           4.632295    1.176369   -0.000587
H           0.000000    2.204089    0.871776
H          -4.589253   -1.312033   -0.000366
H          -4.632295    1.176369   -0.000588
H          -2.516923    2.455835   -0.000358
H          -0.000000    2.205016   -0.869891
                   25
 energy=  -539.65831712095985     
C           3.655128   -0.760470   -0.000210
C           2.448319   -1.434159    0.000090
C           1.234689   -0.729260    0.000210
C           1.267309    0.714610    0.000130
C           2.496659    1.369879   -0.000270
C           3.679448    0.656690   -0.000380
C           0.000000   -1.419399    0.000310
C           0.000000    1.533729    0.000590
C          -1.267309    0.714610    0.000130
C          -1.234689   -0.729260    0.000200
C          -2.448319   -1.434159    0.000080
H          -2.426439   -2.518239    0.000170
C          -3.655128   -0.760470   -0.000220
C          -3.679448    0.656690   -0.000390
C          -2.496659    1.369879   -0.000270
H           0.000000   -2.503909    0.000360
H           4.587768   -1.312179   -0.000350
H           2.426439   -2.518239    0.000180
H           2.516609    2.454879   -0.000370
H           4.630788    1.175839   -0.000590
H           0.000000    2.204469    0.871870
H          -4.587768   -1.312179   -0.000370
H          -4.630788    1.175839   -0.000590
H          -2.516609    2.454879   -0.000360
H           0.000000    2.205399   -0.869970
