                   25
 energy=  -539.66372689577724     
C           3.688988   -0.715250   -0.000010
C           2.466479   -1.408959    0.000000
C           1.239069   -0.731810    0.000010
C           1.264439    0.677450    0.000010
C           2.496369    1.361859    0.000000
C           3.707148    0.672890   -0.000010
C           0.000000   -1.430269    0.000010
C           0.000000    1.456189    0.000020
C          -1.264439    0.677450    0.000000
C          -1.239069   -0.731810    0.000010
C          -2.466479   -1.408959    0.000000
H          -2.469789   -2.494389    0.000010
C          -3.688988   -0.715250   -0.000010
C          -3.707148    0.672890   -0.000020
C          -2.496369    1.361859   -0.000010
H           0.000000   -2.514059    0.000020
H           4.616298   -1.275849   -0.000020
H           2.469789   -2.494389   -0.000010
H           2.490989    2.447849    0.000010
H           4.644568    1.213939   -0.000010
H           0.000000    2.150679    0.861660
H          -4.616298   -1.275849   -0.000010
H          -4.644568    1.213939   -0.000030
H          -2.490989    2.447849   -0.000020
H           0.000000    2.150729   -0.861580
                   25
 energy=  -539.66397260180645     
C           3.686622   -0.720664   -0.000032
C           2.464761   -1.412759    0.000010
C           1.238803   -0.731022    0.000032
C           1.264241    0.681331    0.000023
C           2.496599    1.364026   -0.000029
C           3.705247    0.671410   -0.000050
C          -0.000000   -1.430462    0.000043
C           0.000000    1.465177    0.000081
C          -1.264241    0.681331    0.000014
C          -1.238803   -0.731022    0.000030
C          -2.464761   -1.412759    0.000009
H          -2.465146   -2.497160    0.000027
C          -3.686622   -0.720664   -0.000033
C          -3.705247    0.671410   -0.000060
C          -2.496599    1.364026   -0.000038
H          -0.000000   -2.513099    0.000057
H           4.613402   -1.279881   -0.000056
H           2.465146   -2.497160    0.000011
H           2.493855    2.448799   -0.000031
H           4.643274    1.209896   -0.000073
H          -0.000000    2.156619    0.863002
H          -4.613402   -1.279881   -0.000049
H          -4.643274    1.209896   -0.000091
H          -2.493855    2.448799   -0.000057
H           0.000000    2.156764   -0.862724
                   25
 energy=  -539.66388622537704     
C           3.682914   -0.725487   -0.000055
C           2.462435   -1.415635    0.000020
C           1.238215   -0.730383    0.000055
C           1.264339    0.685336    0.000037
C           2.496678    1.364975   -0.000060
C           3.702253    0.669215   -0.000093
C          -0.000000   -1.429164    0.000078
C          -0.000000    1.473653    0.000147
C          -1.264339    0.685336    0.000030
C          -1.238215   -0.730383    0.000053
C          -2.462435   -1.415635    0.000018
H          -2.460094   -2.499950    0.000046
C          -3.682914   -0.725487   -0.000057
C          -3.702253    0.669215   -0.000103
C          -2.496678    1.364975   -0.000068
H          -0.000000   -2.511908    0.000096
H           4.610084   -1.284100   -0.000094
H           2.460094   -2.499950    0.000033
H           2.496846    2.449634   -0.000076
H           4.641670    1.205447   -0.000141
H          -0.000000    2.162908    0.864195
H          -4.610084   -1.284100   -0.000091
H          -4.641670    1.205447   -0.000156
H          -2.496846    2.449634   -0.000096
H           0.000000    2.163156   -0.863705
                   25
 energy=  -539.66367417841855     
C           3.679301   -0.730185   -0.000078
C           2.460166   -1.418438    0.000030
C           1.237643   -0.729767    0.000078
C           1.264423    0.689243    0.000051
C           2.496765    1.365902   -0.000090
C           3.699339    0.667071   -0.000136
C          -0.000000   -1.427898    0.000112
C          -0.000000    1.481910    0.000211
C          -1.264423    0.689243    0.000045
C          -1.237643   -0.729767    0.000074
C          -2.460166   -1.418438    0.000027
H          -2.455168   -2.502668    0.000064
C          -3.679301   -0.730185   -0.000081
C          -3.699339    0.667071   -0.000145
C          -2.496765    1.365902   -0.000097
H           0.000000   -2.510748    0.000135
H           4.606848   -1.288212   -0.000131
H           2.455168   -2.502668    0.000054
H           2.499761    2.450451   -0.000119
H           4.640103    1.201108   -0.000206
H          -0.000000    2.169041    0.865360
H          -4.606848   -1.288212   -0.000132
H          -4.640103    1.201108   -0.000220
H          -2.499761    2.450451   -0.000135
H           0.000000    2.169389   -0.864663
                   25
 energy=  -539.66333958626990     
C           3.675691   -0.734884   -0.000101
C           2.457896   -1.421243    0.000040
C           1.237072   -0.729158    0.000100
C           1.264511    0.693156    0.000065
C           2.496852    1.366831   -0.000121
C           3.696423    0.664930   -0.000178
C          -0.000000   -1.426634    0.000147
C           0.000000    1.490171    0.000274
C          -1.264511    0.693156    0.000060
C          -1.237072   -0.729158    0.000096
C          -2.457896   -1.421243    0.000036
H          -2.450242   -2.505386    0.000082
C          -3.675691   -0.734884   -0.000105
C          -3.696423    0.664930   -0.000188
C          -2.496852    1.366831   -0.000126
H           0.000000   -2.509588    0.000174
H           4.603612   -1.292323   -0.000169
H           2.450242   -2.505386    0.000076
H           2.502676    2.451267   -0.000162
H           4.638536    1.196769   -0.000272
H          -0.000000    2.175173    0.866524
H          -4.603612   -1.292323   -0.000172
H          -4.638536    1.196769   -0.000283
H          -2.502676    2.451267   -0.000174
H           0.000000    2.175621   -0.865621
                   25
 energy=  -539.66287997045504     
C           3.672084   -0.739585   -0.000123
C           2.455626   -1.424051    0.000050
C           1.236501   -0.728556    0.000123
C           1.264599    0.697074    0.000079
C           2.496940    1.367761   -0.000151
C           3.693507    0.662793   -0.000220
C          -0.000000   -1.425372    0.000181
C          -0.000000    1.498437    0.000338
C          -1.264599    0.697074    0.000075
C          -1.236501   -0.728556    0.000117
C          -2.455626   -1.424051    0.000045
H          -2.445316   -2.508103    0.000101
C          -3.672084   -0.739585   -0.000129
C          -3.693507    0.662793   -0.000230
C          -2.496940    1.367761   -0.000156
H           0.000000   -2.508427    0.000212
H           4.600378   -1.296435   -0.000206
H           2.445316   -2.508103    0.000098
H           2.505591    2.452081   -0.000205
H           4.636969    1.192432   -0.000338
H          -0.000000    2.181304    0.867689
H          -4.600378   -1.296435   -0.000213
H          -4.636969    1.192432   -0.000347
H          -2.505591    2.452081   -0.000212
H           0.000000    2.181852   -0.866579
                   25
 energy=  -539.66230332899909     
C           3.668476   -0.744287   -0.000146
C           2.453354   -1.426858    0.000060
C           1.235931   -0.727962    0.000146
C           1.264686    0.700994    0.000093
C           2.497029    1.368690   -0.000182
C           3.690592    0.660656   -0.000262
C           0.000000   -1.424107    0.000215
C           0.000000    1.506708    0.000402
C          -1.264686    0.700994    0.000089
C          -1.235931   -0.727962    0.000139
C          -2.453354   -1.426858    0.000054
H          -2.440391   -2.510820    0.000119
C          -3.668476   -0.744287   -0.000153
C          -3.690592    0.660656   -0.000272
C          -2.497029    1.368690   -0.000185
H           0.000000   -2.507265    0.000251
H           4.597144   -1.300547   -0.000244
H           2.440391   -2.510820    0.000119
H           2.508506    2.452898   -0.000248
H           4.635402    1.188095   -0.000404
H          -0.000000    2.187435    0.868853
H          -4.597144   -1.300547   -0.000254
H          -4.635402    1.188095   -0.000411
H          -2.508506    2.452898   -0.000251
H           0.000000    2.188083   -0.867537
                   25
 energy=  -539.66160705528114     
C           3.664871   -0.748992   -0.000169
C           2.451082   -1.429669    0.000071
C           1.235363   -0.727372    0.000168
C           1.264775    0.704921    0.000107
C           2.497118    1.369622   -0.000212
C           3.687676    0.658525   -0.000304
C          -0.000000   -1.422845    0.000249
C           0.000000    1.514983    0.000466
C          -1.264775    0.704921    0.000104
C          -1.235363   -0.727372    0.000161
C          -2.451082   -1.429669    0.000063
H          -2.435467   -2.513536    0.000137
C          -3.664871   -0.748992   -0.000177
C          -3.687676    0.658525   -0.000314
C          -2.497118    1.369622   -0.000214
H           0.000000   -2.506104    0.000289
H           4.593911   -1.304659   -0.000281
H           2.435467   -2.513536    0.000141
H           2.511421    2.453711   -0.000291
H           4.633835    1.183759   -0.000470
H          -0.000000    2.193566    0.870017
H          -4.593911   -1.304659   -0.000295
H          -4.633835    1.183759   -0.000474
H          -2.511421    2.453711   -0.000290
H           0.000000    2.194314   -0.868494
                   25
 energy=  -539.66034562794539     
C           3.660027   -0.755098   -0.000195
C           2.448769   -1.432713    0.000083
C           1.234770   -0.727316    0.000195
C           1.265395    0.710045    0.000122
C           2.497102    1.370339   -0.000248
C           3.683726    0.656501   -0.000353
C          -0.000000   -1.421126    0.000289
C           0.000000    1.525288    0.000542
C          -1.265395    0.710045    0.000122
C          -1.234770   -0.727316    0.000186
C          -2.448769   -1.432713    0.000073
H          -2.429715   -2.516682    0.000158
C          -3.660027   -0.755098   -0.000205
C          -3.683726    0.656501   -0.000363
C          -2.497102    1.370339   -0.000248
H           0.000000   -2.504761    0.000334
H           4.590132   -1.309462   -0.000325
H           2.429715   -2.516682    0.000166
H           2.514800    2.454642   -0.000342
H           4.632008    1.178713   -0.000547
H          -0.000000    2.200640    0.871308
H          -4.590132   -1.309462   -0.000342
H          -4.632008    1.178713   -0.000548
H          -2.514800    2.454642   -0.000335
H           0.000000    2.201504   -0.869544
                   25
 energy=  -539.65831712095985     
C           3.655128   -0.760470   -0.000210
C           2.448319   -1.434159    0.000090
C           1.234689   -0.729260    0.000210
C           1.267309    0.714610    0.000130
C           2.496659    1.369879   -0.000270
C           3.679448    0.656690   -0.000380
C           0.000000   -1.419399    0.000310
C           0.000000    1.533729    0.000590
C          -1.267309    0.714610    0.000130
C          -1.234689   -0.729260    0.000200
C          -2.448319   -1.434159    0.000080
H          -2.426439   -2.518239    0.000170
C          -3.655128   -0.760470   -0.000220
C          -3.679448    0.656690   -0.000390
C          -2.496659    1.369879   -0.000270
H           0.000000   -2.503909    0.000360
H           4.587768   -1.312179   -0.000350
H           2.426439   -2.518239    0.000180
H           2.516609    2.454879   -0.000370
H           4.630788    1.175839   -0.000590
H           0.000000    2.204469    0.871870
H          -4.587768   -1.312179   -0.000370
H          -4.630788    1.175839   -0.000590
H          -2.516609    2.454879   -0.000360
H           0.000000    2.205399   -0.869970
