                   25
 energy=  -539.66372689577724     
C           3.688988   -0.715250   -0.000010
C           2.466479   -1.408959    0.000000
C           1.239069   -0.731810    0.000010
C           1.264439    0.677450    0.000010
C           2.496369    1.361859    0.000000
C           3.707148    0.672890   -0.000010
C           0.000000   -1.430269    0.000010
C           0.000000    1.456189    0.000020
C          -1.264439    0.677450    0.000000
C          -1.239069   -0.731810    0.000010
C          -2.466479   -1.408959    0.000000
H          -2.469789   -2.494389    0.000010
C          -3.688988   -0.715250   -0.000010
C          -3.707148    0.672890   -0.000020
C          -2.496369    1.361859   -0.000010
H           0.000000   -2.514059    0.000020
H           4.616298   -1.275849   -0.000020
H           2.469789   -2.494389   -0.000010
H           2.490989    2.447849    0.000010
H           4.644568    1.213939   -0.000010
H           0.000000    2.150679    0.861660
H          -4.616298   -1.275849   -0.000010
H          -4.644568    1.213939   -0.000030
H          -2.490989    2.447849   -0.000020
H           0.000000    2.150729   -0.861580
                   25
 energy=  -539.66438052396029     
C           3.691051   -0.720727   -0.000025
C           2.467287   -1.414192    0.000006
C           1.239966   -0.731141    0.000025
C           1.264058    0.680888    0.000019
C           2.497850    1.366445   -0.000019
C           3.708750    0.672872   -0.000038
C          -0.000000   -1.433830    0.000035
C          -0.000000    1.465140    0.000061
C          -1.264058    0.680888    0.000011
C          -1.239966   -0.731141    0.000023
C          -2.467287   -1.414192    0.000006
H          -2.466917   -2.498037    0.000022
C          -3.691051   -0.720727   -0.000026
C          -3.708750    0.672872   -0.000048
C          -2.497850    1.366445   -0.000029
H          -0.000000   -2.515375    0.000046
H           4.616577   -1.279758   -0.000045
H           2.466917   -2.498037    0.000005
H           2.493519    2.450476   -0.000019
H           4.645606    1.212017   -0.000055
H          -0.000000    2.155478    0.863782
H          -4.616577   -1.279758   -0.000037
H          -4.645606    1.212017   -0.000073
H          -2.493519    2.450476   -0.000046
H           0.000000    2.155595   -0.863564
                   25
 energy=  -539.66437023144965     
C           3.687768   -0.725531   -0.000053
C           2.464342   -1.417180    0.000017
C           1.239130   -0.729637    0.000052
C           1.263657    0.684860    0.000036
C           2.498243    1.367599   -0.000053
C           3.706375    0.669879   -0.000089
C          -0.000000   -1.432467    0.000077
C          -0.000000    1.473314    0.000135
C          -1.263657    0.684860    0.000030
C          -1.239130   -0.729637    0.000049
C          -2.464342   -1.417180    0.000016
H          -2.460956   -2.501264    0.000044
C          -3.687768   -0.725531   -0.000055
C          -3.706375    0.669879   -0.000099
C          -2.498243    1.367599   -0.000062
H          -0.000000   -2.514052    0.000092
H           4.613005   -1.284724   -0.000089
H           2.460956   -2.501264    0.000031
H           2.497126    2.451641   -0.000071
H           4.644147    1.206895   -0.000134
H          -0.000000    2.162659    0.865000
H          -4.613005   -1.284724   -0.000086
H          -4.644147    1.206895   -0.000150
H          -2.497126    2.451641   -0.000092
H           0.000000    2.162897   -0.864534
                   25
 energy=  -539.66423301042391     
C           3.684283   -0.729858   -0.000079
C           2.461326   -1.419692    0.000028
C           1.238212   -0.728183    0.000078
C           1.263316    0.688509    0.000053
C           2.498461    1.368333   -0.000086
C           3.703835    0.666938   -0.000138
C           0.000000   -1.430807    0.000117
C          -0.000000    1.480668    0.000205
C          -1.263316    0.688509    0.000047
C          -1.238212   -0.728183    0.000074
C          -2.461326   -1.419692    0.000026
H          -2.455276   -2.504102    0.000064
C          -3.684283   -0.729858   -0.000083
C          -3.703836    0.666938   -0.000147
C          -2.498461    1.368333   -0.000094
H           0.000000   -2.512566    0.000136
H           4.609366   -1.289288   -0.000131
H           2.455276   -2.504102    0.000055
H           2.500487    2.452498   -0.000120
H           4.642557    1.201941   -0.000210
H          -0.000000    2.169357    0.865991
H          -4.609366   -1.289288   -0.000132
H          -4.642557    1.201941   -0.000223
H          -2.500487    2.452498   -0.000136
H           0.000000    2.169710   -0.865291
                   25
 energy=  -539.66401139198263     
C           3.680643   -0.734381   -0.000106
C           2.458229   -1.422306    0.000039
C           1.237287   -0.726732    0.000105
C           1.262968    0.692304    0.000070
C           2.498705    1.369103   -0.000120
C           3.701192    0.663910   -0.000188
C          -0.000000   -1.429097    0.000158
C           0.000000    1.488353    0.000277
C          -1.262968    0.692304    0.000065
C          -1.237287   -0.726732    0.000100
C          -2.458229   -1.422306    0.000035
H          -2.449403   -2.507026    0.000086
C          -3.680643   -0.734381   -0.000111
C          -3.701192    0.663910   -0.000197
C          -2.498704    1.369103   -0.000126
H          -0.000000   -2.511034    0.000182
H           4.605601   -1.294011   -0.000175
H           2.449403   -2.507026    0.000081
H           2.503965    2.453403   -0.000171
H           4.640904    1.196815   -0.000287
H          -0.000000    2.176295    0.867025
H          -4.605601   -1.294011   -0.000179
H          -4.640904    1.196815   -0.000298
H          -2.503965    2.453403   -0.000182
H           0.000000    2.176767   -0.866081
                   25
 energy=  -539.66373720226773     
C           3.677263   -0.738555   -0.000132
C           2.455304   -1.424767    0.000050
C           1.236411   -0.725333    0.000130
C           1.262621    0.695831    0.000086
C           2.498935    1.369836   -0.000152
C           3.698723    0.661030   -0.000235
C          -0.000000   -1.427498    0.000197
C           0.000000    1.495518    0.000345
C          -1.262621    0.695831    0.000082
C          -1.236411   -0.725333    0.000124
C          -2.455304   -1.424767    0.000044
H          -2.443904   -2.509769    0.000106
C          -3.677263   -0.738555   -0.000138
C          -3.698723    0.661030   -0.000244
C          -2.498935    1.369836   -0.000156
H           0.000000   -2.509595    0.000224
H           4.602073   -1.298436   -0.000216
H           2.443904   -2.509769    0.000104
H           2.507224    2.454232   -0.000218
H           4.639352    1.192012   -0.000361
H          -0.000000    2.182806    0.867999
H          -4.602073   -1.298436   -0.000224
H          -4.639352    1.192012   -0.000369
H          -2.507224    2.454232   -0.000224
H           0.000000    2.183388   -0.866829
                   25
 energy=  -539.66334466368312     
C           3.673417   -0.743228   -0.000160
C           2.451990   -1.427566    0.000062
C           1.235435   -0.723779    0.000158
C           1.262226    0.699794    0.000105
C           2.499177    1.370666   -0.000188
C           3.695887    0.657772   -0.000288
C          -0.000000   -1.425682    0.000241
C           0.000000    1.503633    0.000422
C          -1.262226    0.699794    0.000102
C          -1.235435   -0.723779    0.000152
C          -2.451990   -1.427566    0.000055
H          -2.437739   -2.512847    0.000129
C          -3.673417   -0.743228   -0.000168
C          -3.695887    0.657772   -0.000297
C          -2.499177    1.370666   -0.000191
H          -0.000000   -2.507966    0.000272
H           4.598078   -1.303392   -0.000262
H           2.437739   -2.512847    0.000131
H           2.510872    2.455139   -0.000272
H           4.637556    1.186607   -0.000442
H          -0.000000    2.190140    0.869113
H          -4.598078   -1.303392   -0.000274
H          -4.637556    1.186607   -0.000448
H          -2.510872    2.455139   -0.000272
H           0.000000    2.190847   -0.867688
                   25
 energy=  -539.66276668602484     
C           3.668944   -0.748332   -0.000190
C           2.448505   -1.430689    0.000075
C           1.234451   -0.722405    0.000188
C           1.261932    0.704140    0.000124
C           2.499256    1.371548   -0.000226
C           3.692428    0.654480   -0.000342
C          -0.000000   -1.423711    0.000285
C           0.000000    1.512751    0.000502
C          -1.261932    0.704140    0.000122
C          -1.234451   -0.722405    0.000180
C          -2.448505   -1.430689    0.000066
H          -2.431358   -2.516030    0.000152
C          -3.668944   -0.748332   -0.000200
C          -3.692428    0.654480   -0.000351
C          -2.499256    1.371548   -0.000227
H          -0.000000   -2.506167    0.000322
H           4.593688   -1.308484   -0.000310
H           2.431358   -2.516030    0.000159
H           2.514589    2.455920   -0.000327
H           4.635387    1.180912   -0.000527
H          -0.000000    2.197862    0.870363
H          -4.593688   -1.308484   -0.000326
H          -4.635387    1.180912   -0.000530
H          -2.514589    2.455920   -0.000322
H           0.000000    2.198698   -0.868673
                   25
 energy=  -539.66172154969445     
C           3.662988   -0.754276   -0.000218
C           2.445236   -1.434272    0.000088
C           1.233626   -0.722082    0.000216
C           1.262194    0.709232    0.000140
C           2.498784    1.372325   -0.000266
C           3.687340    0.651782   -0.000393
C          -0.000000   -1.421499    0.000325
C           0.000000    1.523913    0.000584
C          -1.262194    0.709232    0.000139
C          -1.233626   -0.722082    0.000207
C          -2.445236   -1.434272    0.000078
H          -2.425305   -2.519113    0.000174
C          -3.662988   -0.754276   -0.000229
C          -3.687340    0.651782   -0.000402
C          -2.498784    1.372325   -0.000265
H          -0.000000   -2.504183    0.000369
H           4.588790   -1.313226   -0.000356
H           2.425305   -2.519113    0.000185
H           2.517917    2.456287   -0.000380
H           4.632440    1.175256   -0.000607
H           0.000000    2.205573    0.871862
H          -4.588790   -1.313226   -0.000377
H          -4.632440    1.175256   -0.000607
H          -2.517917    2.456287   -0.000369
H          -0.000000    2.206530   -0.869919
                   25
 energy=  -539.65831712095985     
C           3.655128   -0.760470   -0.000210
C           2.448319   -1.434159    0.000090
C           1.234689   -0.729260    0.000210
C           1.267309    0.714610    0.000130
C           2.496659    1.369879   -0.000270
C           3.679448    0.656690   -0.000380
C           0.000000   -1.419399    0.000310
C           0.000000    1.533729    0.000590
C          -1.267309    0.714610    0.000130
C          -1.234689   -0.729260    0.000200
C          -2.448319   -1.434159    0.000080
H          -2.426439   -2.518239    0.000170
C          -3.655128   -0.760470   -0.000220
C          -3.679448    0.656690   -0.000390
C          -2.496659    1.369879   -0.000270
H           0.000000   -2.503909    0.000360
H           4.587768   -1.312179   -0.000350
H           2.426439   -2.518239    0.000180
H           2.516609    2.454879   -0.000370
H           4.630788    1.175839   -0.000590
H           0.000000    2.204469    0.871870
H          -4.587768   -1.312179   -0.000370
H          -4.630788    1.175839   -0.000590
H          -2.516609    2.454879   -0.000360
H           0.000000    2.205399   -0.869970
