                   25
 energy=  -539.66372689577724     
C           3.688988   -0.715250   -0.000010
C           2.466479   -1.408959    0.000000
C           1.239069   -0.731810    0.000010
C           1.264439    0.677450    0.000010
C           2.496369    1.361859    0.000000
C           3.707148    0.672890   -0.000010
C           0.000000   -1.430269    0.000010
C           0.000000    1.456189    0.000020
C          -1.264439    0.677450    0.000000
C          -1.239069   -0.731810    0.000010
C          -2.466479   -1.408959    0.000000
H          -2.469789   -2.494389    0.000010
C          -3.688988   -0.715250   -0.000010
C          -3.707148    0.672890   -0.000020
C          -2.496369    1.361859   -0.000010
H           0.000000   -2.514059    0.000020
H           4.616298   -1.275849   -0.000020
H           2.469789   -2.494389   -0.000010
H           2.490989    2.447849    0.000010
H           4.644568    1.213939   -0.000010
H           0.000000    2.150679    0.861660
H          -4.616298   -1.275849   -0.000010
H          -4.644568    1.213939   -0.000030
H          -2.490989    2.447849   -0.000020
H           0.000000    2.150729   -0.861580
                   25
 energy=  -539.66467176600440     
C           3.695625   -0.719848   -0.000014
C           2.470549   -1.414730    0.000000
C           1.241457   -0.732010    0.000013
C           1.264706    0.679917    0.000012
C           2.499263    1.368060   -0.000003
C           3.712299    0.674798   -0.000017
C          -0.000000   -1.436680    0.000018
C           0.000000    1.463844    0.000030
C          -1.264707    0.679917    0.000004
C          -1.241457   -0.732010    0.000012
C          -2.470550   -1.414730    0.000002
H          -2.470025   -2.498477    0.000013
C          -3.695625   -0.719848   -0.000014
C          -3.712299    0.674798   -0.000027
C          -2.499263    1.368060   -0.000015
H          -0.000000   -2.518082    0.000026
H           4.620906   -1.278892   -0.000026
H           2.470025   -2.498477   -0.000006
H           2.492842    2.452038    0.000002
H           4.648499    1.215097   -0.000022
H          -0.000001    2.153326    0.864424
H          -4.620906   -1.278892   -0.000017
H          -4.648499    1.215097   -0.000041
H          -2.492842    2.452038   -0.000026
H           0.000000    2.153393   -0.864310
                   25
 energy=  -539.66479953969906     
C           3.694531   -0.725462   -0.000048
C           2.468344   -1.418633    0.000012
C           1.241111   -0.730009    0.000046
C           1.264505    0.684533    0.000033
C           2.501134    1.370407   -0.000041
C           3.712048    0.671417   -0.000079
C          -0.000000   -1.436296    0.000072
C          -0.000000    1.473119    0.000115
C          -1.264505    0.684533    0.000028
C          -1.241111   -0.730009    0.000043
C          -2.468344   -1.418633    0.000013
H          -2.463153   -2.503099    0.000039
C          -3.694531   -0.725462   -0.000050
C          -3.712048    0.671416   -0.000088
C          -2.501134    1.370407   -0.000052
H          -0.000000   -2.517985    0.000083
H           4.618985   -1.285710   -0.000079
H           2.463153   -2.503099    0.000025
H           2.497826    2.454837   -0.000060
H           4.649055    1.209792   -0.000119
H          -0.000001    2.161869    0.866136
H          -4.618985   -1.285710   -0.000075
H          -4.649055    1.209792   -0.000135
H          -2.497826    2.454837   -0.000082
H           0.000001    2.162086   -0.865725
                   25
 energy=  -539.66466792274696     
C           3.690755   -0.730053   -0.000083
C           2.464187   -1.420831    0.000025
C           1.239705   -0.727558    0.000080
C           1.263816    0.688369    0.000056
C           2.501682    1.370864   -0.000081
C           3.709797    0.667372   -0.000143
C           0.000000   -1.433847    0.000127
C          -0.000000    1.480090    0.000202
C          -1.263815    0.688369    0.000051
C          -1.239705   -0.727557    0.000077
C          -2.464187   -1.420831    0.000024
H          -2.455611   -2.505862    0.000066
C          -3.690755   -0.730053   -0.000087
C          -3.709797    0.667372   -0.000152
C          -2.501682    1.370864   -0.000089
H           0.000000   -2.515672    0.000140
H           4.614424   -1.291451   -0.000133
H           2.455611   -2.505862    0.000057
H           2.502262    2.455573   -0.000124
H           4.647631    1.203471   -0.000219
H          -0.000001    2.169631    0.866594
H          -4.614424   -1.291451   -0.000134
H          -4.647631    1.203471   -0.000232
H          -2.502262    2.455573   -0.000139
H           0.000000    2.170000   -0.865880
                   25
 energy=  -539.66448117988557     
C           3.687000   -0.734577   -0.000117
C           2.460084   -1.422991    0.000038
C           1.238332   -0.725136    0.000114
C           1.263143    0.692144    0.000079
C           2.502205    1.371302   -0.000119
C           3.707541    0.663379   -0.000205
C          -0.000001   -1.431429    0.000180
C           0.000000    1.486986    0.000288
C          -1.263144    0.692145    0.000074
C          -1.238332   -0.725136    0.000110
C          -2.460085   -1.422992    0.000034
H          -2.448194   -2.508572    0.000092
C          -3.687000   -0.734578   -0.000123
C          -3.707541    0.663379   -0.000214
C          -2.502205    1.371302   -0.000126
H          -0.000000   -2.513401    0.000197
H           4.609907   -1.297096   -0.000187
H           2.448194   -2.508572    0.000088
H           2.506632    2.456283   -0.000186
H           4.646196    1.197227   -0.000316
H          -0.000000    2.177290    0.867046
H          -4.609907   -1.297096   -0.000192
H          -4.646196    1.197227   -0.000326
H          -2.506632    2.456283   -0.000195
H           0.000000    2.177808   -0.866034
                   25
 energy=  -539.66422697364453     
C           3.683052   -0.739254   -0.000152
C           2.455791   -1.425266    0.000052
C           1.236904   -0.722617    0.000149
C           1.262411    0.696052    0.000102
C           2.502729    1.371758   -0.000160
C           3.705143    0.659198   -0.000271
C          -0.000000   -1.428906    0.000235
C           0.000000    1.494191    0.000378
C          -1.262411    0.696052    0.000099
C          -1.236904   -0.722618    0.000144
C          -2.455791   -1.425267    0.000045
H          -2.440509   -2.511388    0.000120
C          -3.683052   -0.739254   -0.000161
C          -3.705143    0.659198   -0.000279
C          -2.502729    1.371758   -0.000164
H          -0.000000   -2.511015    0.000256
H           4.605167   -1.302933   -0.000243
H           2.440509   -2.511388    0.000121
H           2.511150    2.456992   -0.000251
H           4.644627    1.190722   -0.000417
H          -0.000000    2.185289    0.867547
H          -4.605167   -1.302933   -0.000253
H          -4.644627    1.190722   -0.000424
H          -2.511150    2.456992   -0.000254
H           0.000000    2.185961   -0.866226
                   25
 energy=  -539.66384365288536     
C           3.678437   -0.744322   -0.000190
C           2.451047   -1.427955    0.000066
C           1.235347   -0.719995    0.000187
C           1.261532    0.700340    0.000127
C           2.503054    1.372308   -0.000204
C           3.702089    0.654679   -0.000340
C          -0.000001   -1.426191    0.000293
C           0.000000    1.502417    0.000473
C          -1.261532    0.700341    0.000125
C          -1.235347   -0.719995    0.000180
C          -2.451048   -1.427955    0.000058
H          -2.432399   -2.514569    0.000149
C          -3.678436   -0.744323   -0.000200
C          -3.702088    0.654679   -0.000347
C          -2.503054    1.372308   -0.000206
H          -0.000000   -2.508412    0.000318
H           4.599795   -1.309044   -0.000302
H           2.432399   -2.514569    0.000155
H           2.515822    2.457679   -0.000320
H           4.642462    1.183691   -0.000524
H          -0.000000    2.194063    0.868318
H          -4.599795   -1.309044   -0.000317
H          -4.642462    1.183691   -0.000528
H          -2.515822    2.457679   -0.000315
H           0.000000    2.194897   -0.866671
                   25
 energy=  -539.66320872843835     
C           3.672167   -0.749920   -0.000227
C           2.445603   -1.431468    0.000083
C           1.233572   -0.717584    0.000224
C           1.260374    0.705183    0.000151
C           2.502557    1.372974   -0.000253
C           3.697225    0.649908   -0.000408
C          -0.000000   -1.423209    0.000348
C           0.000000    1.512627    0.000573
C          -1.260374    0.705183    0.000150
C          -1.233571   -0.717585    0.000216
C          -2.445603   -1.431468    0.000072
H          -2.424223   -2.518259    0.000178
C          -3.672166   -0.749920   -0.000239
C          -3.697225    0.649908   -0.000416
C          -2.502557    1.372974   -0.000252
H          -0.000000   -2.505415    0.000380
H           4.593119   -1.314940   -0.000362
H           2.424223   -2.518259    0.000190
H           2.520138    2.458081   -0.000389
H           4.638617    1.176119   -0.000629
H           0.000000    2.203774    0.869741
H          -4.593119   -1.314940   -0.000383
H          -4.638617    1.176119   -0.000629
H          -2.520138    2.458081   -0.000377
H           0.000000    2.204766   -0.867763
                   25
 energy=  -539.66194501255632     
C           3.662722   -0.756576   -0.000256
C           2.440199   -1.436284    0.000100
C           1.231917   -0.716990    0.000253
C           1.259639    0.711088    0.000168
C           2.500365    1.373663   -0.000303
C           3.688592    0.646097   -0.000463
C           0.000000   -1.420030    0.000386
C          -0.000000    1.526790    0.000667
C          -1.259639    0.711088    0.000168
C          -1.231917   -0.716990    0.000243
C          -2.440198   -1.436284    0.000087
H          -2.417392   -2.522228    0.000203
C          -3.662722   -0.756576   -0.000269
C          -3.688592    0.646097   -0.000471
C          -2.500365    1.373663   -0.000300
H          -0.000000   -2.502178    0.000430
H           4.584999   -1.319437   -0.000413
H           2.417392   -2.522228    0.000219
H           2.522955    2.457720   -0.000447
H           4.632066    1.168848   -0.000713
H           0.000000    2.213614    0.872241
H          -4.584999   -1.319437   -0.000439
H          -4.632066    1.168848   -0.000710
H          -2.522955    2.457720   -0.000429
H          -0.000000    2.214730   -0.869982
                   25
 energy=  -539.65831712095985     
C           3.655128   -0.760470   -0.000210
C           2.448319   -1.434159    0.000090
C           1.234689   -0.729260    0.000210
C           1.267309    0.714610    0.000130
C           2.496659    1.369879   -0.000270
C           3.679448    0.656690   -0.000380
C           0.000000   -1.419399    0.000310
C           0.000000    1.533729    0.000590
C          -1.267309    0.714610    0.000130
C          -1.234689   -0.729260    0.000200
C          -2.448319   -1.434159    0.000080
H          -2.426439   -2.518239    0.000170
C          -3.655128   -0.760470   -0.000220
C          -3.679448    0.656690   -0.000390
C          -2.496659    1.369879   -0.000270
H           0.000000   -2.503909    0.000360
H           4.587768   -1.312179   -0.000350
H           2.426439   -2.518239    0.000180
H           2.516609    2.454879   -0.000370
H           4.630788    1.175839   -0.000590
H           0.000000    2.204469    0.871870
H          -4.587768   -1.312179   -0.000370
H          -4.630788    1.175839   -0.000590
H          -2.516609    2.454879   -0.000360
H           0.000000    2.205399   -0.869970
