                   25
 energy=  -539.66372689577724     
C           3.688988   -0.715250   -0.000010
C           2.466479   -1.408959    0.000000
C           1.239069   -0.731810    0.000010
C           1.264439    0.677450    0.000010
C           2.496369    1.361859    0.000000
C           3.707148    0.672890   -0.000010
C           0.000000   -1.430269    0.000010
C           0.000000    1.456189    0.000020
C          -1.264439    0.677450    0.000000
C          -1.239069   -0.731810    0.000010
C          -2.466479   -1.408959    0.000000
H          -2.469789   -2.494389    0.000010
C          -3.688988   -0.715250   -0.000010
C          -3.707148    0.672890   -0.000020
C          -2.496369    1.361859   -0.000010
H           0.000000   -2.514059    0.000020
H           4.616298   -1.275849   -0.000020
H           2.469789   -2.494389   -0.000010
H           2.490989    2.447849    0.000010
H           4.644568    1.213939   -0.000010
H           0.000000    2.150679    0.861660
H          -4.616298   -1.275849   -0.000010
H          -4.644568    1.213939   -0.000030
H          -2.490989    2.447849   -0.000020
H           0.000000    2.150729   -0.861580
                   25
 energy=  -539.66452619963718     
C           3.693241   -0.720306   -0.000020
C           2.468799   -1.414443    0.000003
C           1.240652   -0.731510    0.000019
C           1.264327    0.680422    0.000016
C           2.498517    1.367226   -0.000011
C           3.710462    0.673766   -0.000028
C          -0.000000   -1.435200    0.000027
C          -0.000000    1.464488    0.000046
C          -1.264327    0.680422    0.000008
C          -1.240652   -0.731510    0.000018
C          -2.468799   -1.414443    0.000004
H          -2.468327   -2.498258    0.000018
C          -3.693241   -0.720306   -0.000021
C          -3.710462    0.673766   -0.000038
C          -2.498517    1.367226   -0.000023
H          -0.000000   -2.516663    0.000037
H           4.618601   -1.279378   -0.000036
H           2.468327   -2.498258   -0.000000
H           2.493194    2.451238   -0.000009
H           4.646976    1.213457   -0.000040
H          -0.000000    2.154467    0.864082
H          -4.618601   -1.279378   -0.000028
H          -4.646976    1.213457   -0.000058
H          -2.493194    2.451238   -0.000036
H           0.000000    2.154562   -0.863912
                   25
 energy=  -539.66458467292580     
C           3.690661   -0.725640   -0.000052
C           2.465935   -1.417939    0.000015
C           1.239924   -0.729678    0.000050
C           1.263879    0.684803    0.000036
C           2.499469    1.368936   -0.000049
C           3.708814    0.670453   -0.000086
C          -0.000000   -1.434196    0.000076
C          -0.000000    1.473409    0.000128
C          -1.263879    0.684803    0.000029
C          -1.239924   -0.729678    0.000048
C          -2.465935   -1.417939    0.000015
H          -2.461672   -2.502153    0.000042
C          -3.690661   -0.725640   -0.000054
C          -3.708814    0.670453   -0.000096
C          -2.499469    1.368936   -0.000059
H          -0.000000   -2.515702    0.000089
H           4.615405   -1.285283   -0.000086
H           2.461672   -2.502153    0.000029
H           2.497474    2.453071   -0.000068
H           4.646169    1.207990   -0.000130
H          -0.000000    2.162504    0.865525
H          -4.615405   -1.285283   -0.000082
H          -4.646169    1.207990   -0.000146
H          -2.497474    2.453071   -0.000089
H           0.000000    2.162737   -0.865075
                   25
 energy=  -539.66445936454488     
C           3.687224   -0.729834   -0.000080
C           2.462542   -1.420209    0.000027
C           1.238828   -0.727834    0.000078
C           1.263363    0.688331    0.000054
C           2.499803    1.369525   -0.000083
C           3.706515    0.667144   -0.000139
C           0.000000   -1.432275    0.000120
C          -0.000000    1.480221    0.000202
C          -1.263363    0.688331    0.000048
C          -1.238828   -0.727834    0.000075
C          -2.462542   -1.420209    0.000025
H          -2.455491   -2.504867    0.000065
C          -3.687224   -0.729834   -0.000084
C          -3.706515    0.667144   -0.000148
C          -2.499803    1.369525   -0.000091
H           0.000000   -2.513947    0.000137
H           4.611538   -1.290119   -0.000131
H           2.455491   -2.504867    0.000056
H           2.501121    2.453855   -0.000121
H           4.644681    1.202688   -0.000212
H          -0.000000    2.169377    0.866270
H          -4.611538   -1.290119   -0.000132
H          -4.644681    1.202688   -0.000225
H          -2.501121    2.453855   -0.000136
H           0.000000    2.169734   -0.865569
                   25
 energy=  -539.66426069934357     
C           3.683569   -0.734290   -0.000110
C           2.458984   -1.422616    0.000038
C           1.237690   -0.725910    0.000108
C           1.262844    0.692075    0.000073
C           2.500156    1.370143   -0.000119
C           3.704063    0.663661   -0.000194
C          -0.000000   -1.430264    0.000167
C           0.000000    1.487478    0.000280
C          -1.262845    0.692075    0.000069
C          -1.237690   -0.725910    0.000104
C          -2.458984   -1.422616    0.000035
H          -2.448977   -2.507735    0.000088
C          -3.683569   -0.734290   -0.000116
C          -3.704063    0.663661   -0.000203
C          -2.500156    1.370143   -0.000125
H          -0.000000   -2.512113    0.000187
H           4.607454   -1.295223   -0.000179
H           2.448977   -2.507735    0.000083
H           2.504972    2.454698   -0.000176
H           4.643098    1.197084   -0.000298
H          -0.000000    2.176647    0.867068
H          -4.607454   -1.295223   -0.000184
H          -4.643098    1.197084   -0.000308
H          -2.504972    2.454698   -0.000186
H           0.000000    2.177135   -0.866101
                   25
 energy=  -539.66399933835851     
C           3.679933   -0.738697   -0.000140
C           2.455455   -1.425003    0.000050
C           1.236572   -0.724022    0.000137
C           1.262318    0.695784    0.000093
C           2.500504    1.370754   -0.000155
C           3.701618    0.660207   -0.000249
C          -0.000000   -1.428266    0.000212
C           0.000000    1.494683    0.000357
C          -1.262318    0.695784    0.000089
C          -1.236572   -0.724022    0.000132
C          -2.455456   -1.425003    0.000044
H          -2.442539   -2.510576    0.000111
C          -3.679933   -0.738697   -0.000147
C          -3.701618    0.660207   -0.000258
C          -2.500504    1.370754   -0.000159
H           0.000000   -2.510287    0.000237
H           4.603401   -1.300266   -0.000226
H           2.442539   -2.510576    0.000111
H           2.508778    2.455515   -0.000231
H           4.641503    1.191532   -0.000383
H          -0.000000    2.183862    0.867874
H          -4.603401   -1.300266   -0.000235
H          -4.641503    1.191532   -0.000391
H          -2.508778    2.455515   -0.000236
H           0.000000    2.184480   -0.866644
                   25
 energy=  -539.66362951360099     
C           3.675848   -0.743480   -0.000172
C           2.451608   -1.427691    0.000063
C           1.235368   -0.722036    0.000169
C           1.261743    0.699832    0.000114
C           2.500794    1.371441   -0.000193
C           3.698773    0.656472   -0.000308
C          -0.000000   -1.426102    0.000261
C           0.000000    1.502694    0.000440
C          -1.261743    0.699832    0.000111
C          -1.235367   -0.722037    0.000163
C          -2.451608   -1.427691    0.000055
H          -2.435645   -2.513671    0.000136
C          -3.675848   -0.743480   -0.000181
C          -3.698772    0.656472   -0.000316
C          -2.500794    1.371441   -0.000196
H          -0.000000   -2.508285    0.000290
H           4.598919   -1.305651   -0.000277
H           2.435645   -2.513671    0.000140
H           2.512825    2.456340   -0.000290
H           4.639609    1.185522   -0.000474
H          -0.000000    2.191708    0.868823
H          -4.598919   -1.305651   -0.000291
H          -4.639609    1.185522   -0.000479
H          -2.512825    2.456340   -0.000289
H           0.000000    2.192465   -0.867312
                   25
 energy=  -539.66305093904089     
C           3.670689   -0.748779   -0.000205
C           2.447298   -1.430975    0.000078
C           1.234060   -0.720172    0.000202
C           1.261100    0.704382    0.000135
C           2.500710    1.372236   -0.000236
C           3.694806    0.652496   -0.000369
C          -0.000000   -1.423684    0.000311
C           0.000000    1.512244    0.000530
C          -1.261100    0.704383    0.000133
C          -1.234060   -0.720172    0.000195
C          -2.447298   -1.430975    0.000068
H          -2.428444   -2.517073    0.000163
C          -3.670689   -0.748780   -0.000216
C          -3.694806    0.652496   -0.000377
C          -2.500710    1.372236   -0.000237
H          -0.000000   -2.505981    0.000345
H           4.593612   -1.311166   -0.000331
H           2.428444   -2.517073    0.000171
H           2.516885    2.456982   -0.000352
H           4.636835    1.178998   -0.000569
H           0.000000    2.200317    0.870128
H          -4.593612   -1.311166   -0.000349
H          -4.636835    1.178998   -0.000570
H          -2.516885    2.456982   -0.000344
H           0.000000    2.201217   -0.868322
                   25
 energy=  -539.66198343339443     
C           3.663536   -0.754893   -0.000234
C           2.443148   -1.435043    0.000093
C           1.232914   -0.719606    0.000231
C           1.260935    0.709704    0.000152
C           2.499687    1.373014   -0.000280
C           3.688509    0.649230   -0.000423
C          -0.000000   -1.421074    0.000351
C          -0.000000    1.524434    0.000617
C          -1.260935    0.709704    0.000152
C          -1.232914   -0.719606    0.000222
C          -2.443148   -1.435043    0.000081
H          -2.422003   -2.520466    0.000186
C          -3.663536   -0.754893   -0.000246
C          -3.688509    0.649230   -0.000431
C          -2.499687    1.373014   -0.000279
H          -0.000000   -2.503486    0.000395
H           4.587507   -1.315908   -0.000380
H           2.422003   -2.520466    0.000199
H           2.520131    2.457063   -0.000408
H           4.632622    1.172664   -0.000652
H           0.000000    2.208890    0.871984
H          -4.587507   -1.315908   -0.000402
H          -4.632622    1.172664   -0.000650
H          -2.520131    2.457063   -0.000394
H          -0.000000    2.209915   -0.869908
                   25
 energy=  -539.65831712095985     
C           3.655128   -0.760470   -0.000210
C           2.448319   -1.434159    0.000090
C           1.234689   -0.729260    0.000210
C           1.267309    0.714610    0.000130
C           2.496659    1.369879   -0.000270
C           3.679448    0.656690   -0.000380
C           0.000000   -1.419399    0.000310
C           0.000000    1.533729    0.000590
C          -1.267309    0.714610    0.000130
C          -1.234689   -0.729260    0.000200
C          -2.448319   -1.434159    0.000080
H          -2.426439   -2.518239    0.000170
C          -3.655128   -0.760470   -0.000220
C          -3.679448    0.656690   -0.000390
C          -2.496659    1.369879   -0.000270
H           0.000000   -2.503909    0.000360
H           4.587768   -1.312179   -0.000350
H           2.426439   -2.518239    0.000180
H           2.516609    2.454879   -0.000370
H           4.630788    1.175839   -0.000590
H           0.000000    2.204469    0.871870
H          -4.587768   -1.312179   -0.000370
H          -4.630788    1.175839   -0.000590
H          -2.516609    2.454879   -0.000360
H           0.000000    2.205399   -0.869970
