                   25
 energy=  -539.66372689577724     
C           3.688988   -0.715250   -0.000010
C           2.466479   -1.408959    0.000000
C           1.239069   -0.731810    0.000010
C           1.264439    0.677450    0.000010
C           2.496369    1.361859    0.000000
C           3.707148    0.672890   -0.000010
C           0.000000   -1.430269    0.000010
C           0.000000    1.456189    0.000020
C          -1.264439    0.677450    0.000000
C          -1.239069   -0.731810    0.000010
C          -2.466479   -1.408959    0.000000
H          -2.469789   -2.494389    0.000010
C          -3.688988   -0.715250   -0.000010
C          -3.707148    0.672890   -0.000020
C          -2.496369    1.361859   -0.000010
H           0.000000   -2.514059    0.000020
H           4.616298   -1.275849   -0.000020
H           2.469789   -2.494389   -0.000010
H           2.490989    2.447849    0.000010
H           4.644568    1.213939   -0.000010
H           0.000000    2.150679    0.861660
H          -4.616298   -1.275849   -0.000010
H          -4.644568    1.213939   -0.000030
H          -2.490989    2.447849   -0.000020
H           0.000000    2.150729   -0.861580
                   25
 energy=  -539.66385693303130     
C           3.685741   -0.720485   -0.000032
C           2.464498   -1.412231    0.000010
C           1.238650   -0.731254    0.000032
C           1.264529    0.681463    0.000023
C           2.496439    1.363310   -0.000030
C           3.704517    0.671192   -0.000051
C          -0.000000   -1.429630    0.000044
C          -0.000000    1.465042    0.000083
C          -1.264529    0.681463    0.000015
C          -1.238650   -0.731254    0.000031
C          -2.464498   -1.412231    0.000009
H          -2.464981   -2.497062    0.000028
C          -3.685741   -0.720485   -0.000033
C          -3.704517    0.671192   -0.000061
C          -2.496439    1.363310   -0.000039
H           0.000000   -2.512917    0.000058
H           4.613134   -1.279900   -0.000057
H           2.464981   -2.497062    0.000011
H           2.493873    2.448637   -0.000032
H           4.643057    1.209702   -0.000075
H          -0.000000    2.156702    0.862869
H          -4.613134   -1.279900   -0.000050
H          -4.643057    1.209702   -0.000092
H          -2.493873    2.448637   -0.000058
H           0.000000    2.156850   -0.862587
                   25
 energy=  -539.66374594983961     
C           3.682037   -0.725371   -0.000055
C           2.462377   -1.415061    0.000020
C           1.238131   -0.730830    0.000055
C           1.264749    0.685500    0.000037
C           2.496496    1.364236   -0.000060
C           3.701493    0.669237   -0.000093
C          -0.000000   -1.428406    0.000077
C          -0.000000    1.473548    0.000147
C          -1.264749    0.685500    0.000029
C          -1.238131   -0.730830    0.000052
C          -2.462377   -1.415061    0.000018
H          -2.460119   -2.499741    0.000046
C          -3.682037   -0.725371   -0.000057
C          -3.701493    0.669237   -0.000103
C          -2.496496    1.364236   -0.000068
H          -0.000000   -2.511778    0.000096
H           4.609935   -1.283973   -0.000094
H           2.460119   -2.499741    0.000033
H           2.496747    2.449430   -0.000075
H           4.641509    1.205426   -0.000140
H          -0.000000    2.162751    0.864024
H          -4.609935   -1.283973   -0.000090
H          -4.641509    1.205426   -0.000155
H          -2.496747    2.449430   -0.000096
H           0.000000    2.162998   -0.863536
                   25
 energy=  -539.66349266102418     
C           3.678334   -0.730259   -0.000077
C           2.460254   -1.417891    0.000030
C           1.237614   -0.730411    0.000077
C           1.264968    0.689539    0.000050
C           2.496554    1.365163   -0.000090
C           3.698469    0.667286   -0.000134
C          -0.000000   -1.427182    0.000111
C           0.000000    1.482054    0.000210
C          -1.264968    0.689539    0.000044
C          -1.237614   -0.730411    0.000074
C          -2.460254   -1.417891    0.000027
H          -2.455258   -2.502419    0.000064
C          -3.678334   -0.730259   -0.000081
C          -3.698469    0.667286   -0.000144
C          -2.496554    1.365163   -0.000097
H          -0.000000   -2.510639    0.000134
H           4.606736   -1.288045   -0.000131
H           2.455258   -2.502419    0.000054
H           2.499622    2.450223   -0.000118
H           4.639960    1.201150   -0.000205
H          -0.000000    2.168799    0.865177
H          -4.606736   -1.288045   -0.000131
H          -4.639960    1.201150   -0.000218
H          -2.499622    2.450223   -0.000134
H           0.000000    2.169145   -0.864486
                   25
 energy=  -539.66309613069745     
C           3.674633   -0.735149   -0.000100
C           2.458130   -1.420722    0.000040
C           1.237097   -0.729996    0.000100
C           1.265188    0.693582    0.000064
C           2.496612    1.366090   -0.000121
C           3.695446    0.665338   -0.000176
C          -0.000000   -1.425958    0.000145
C          -0.000000    1.490561    0.000274
C          -1.265188    0.693582    0.000059
C          -1.237097   -0.729996    0.000095
C          -2.458130   -1.420722    0.000036
H          -2.450396   -2.505098    0.000082
C          -3.674633   -0.735149   -0.000104
C          -3.695446    0.665338   -0.000186
C          -2.496612    1.366090   -0.000126
H           0.000000   -2.509499    0.000172
H           4.603538   -1.292117   -0.000168
H           2.450396   -2.505098    0.000075
H           2.502496    2.451015   -0.000160
H           4.638412    1.196875   -0.000270
H          -0.000000    2.174847    0.866331
H          -4.603538   -1.292117   -0.000171
H          -4.638412    1.196875   -0.000281
H          -2.502496    2.451015   -0.000172
H           0.000000    2.175291   -0.865436
                   25
 energy=  -539.66255797403846     
C           3.670935   -0.740040   -0.000122
C           2.456005   -1.423554    0.000050
C           1.236580   -0.729584    0.000122
C           1.265408    0.697627    0.000078
C           2.496670    1.367018   -0.000151
C           3.692423    0.663393   -0.000217
C          -0.000000   -1.424735    0.000178
C          -0.000000    1.499069    0.000338
C          -1.265408    0.697627    0.000073
C          -1.236580   -0.729584    0.000116
C          -2.456005   -1.423554    0.000045
H          -2.445536   -2.507775    0.000100
C          -3.670935   -0.740040   -0.000128
C          -3.692423    0.663393   -0.000227
C          -2.496670    1.367018   -0.000155
H           0.000000   -2.508360    0.000210
H           4.600339   -1.296188   -0.000205
H           2.445536   -2.507775    0.000096
H           2.505370    2.451806   -0.000203
H           4.636864    1.192599   -0.000335
H          -0.000000    2.180894    0.867485
H          -4.600339   -1.296188   -0.000211
H          -4.636864    1.192599   -0.000344
H          -2.505370    2.451806   -0.000210
H           0.000000    2.181437   -0.866385
                   25
 energy=  -539.66187600982460     
C           3.667239   -0.744933   -0.000145
C           2.453878   -1.426387    0.000060
C           1.236064   -0.729177    0.000144
C           1.265628    0.701675    0.000091
C           2.496729    1.367947   -0.000181
C           3.689400    0.661450   -0.000259
C          -0.000000   -1.423511    0.000212
C          -0.000000    1.507578    0.000401
C          -1.265628    0.701675    0.000088
C          -1.236064   -0.729177    0.000138
C          -2.453878   -1.426387    0.000054
H          -2.440676   -2.510453    0.000118
C          -3.667239   -0.744933   -0.000151
C          -3.689400    0.661450   -0.000269
C          -2.496729    1.367947   -0.000184
H          -0.000000   -2.507221    0.000248
H           4.597141   -1.300259   -0.000242
H           2.440676   -2.510453    0.000118
H           2.508244    2.452598   -0.000245
H           4.635316    1.188324   -0.000400
H          -0.000000    2.186940    0.868639
H          -4.597141   -1.300259   -0.000252
H          -4.635316    1.188324   -0.000406
H          -2.508244    2.452598   -0.000249
H           0.000000    2.187581   -0.867335
                   25
 energy=  -539.66105815273886     
C           3.663545   -0.749828   -0.000167
C           2.451749   -1.429221    0.000070
C           1.235549   -0.728773    0.000167
C           1.265847    0.705725    0.000105
C           2.496789    1.368875   -0.000211
C           3.686378    0.659511   -0.000300
C          -0.000000   -1.422288    0.000246
C          -0.000000    1.516089    0.000465
C          -1.265847    0.705725    0.000102
C          -1.235549   -0.728773    0.000159
C          -2.451749   -1.429221    0.000063
H          -2.435816   -2.513129    0.000135
C          -3.663545   -0.749828   -0.000175
C          -3.686378    0.659511   -0.000310
C          -2.496789    1.368875   -0.000213
H           0.000000   -2.506082    0.000287
H           4.593944   -1.304330   -0.000279
H           2.435816   -2.513129    0.000139
H           2.511118    2.453389   -0.000288
H           4.633767    1.184050   -0.000465
H          -0.000000    2.192985    0.869792
H          -4.593944   -1.304330   -0.000292
H          -4.633767    1.184050   -0.000469
H          -2.511118    2.453389   -0.000287
H           0.000000    2.193725   -0.868284
                   25
 energy=  -539.66010281635624     
C           3.659854   -0.754723   -0.000190
C           2.449619   -1.432056    0.000080
C           1.235034   -0.728373    0.000189
C           1.266067    0.709778    0.000118
C           2.496849    1.369805   -0.000241
C           3.683356    0.657574   -0.000342
C          -0.000000   -1.421065    0.000279
C           0.000000    1.524600    0.000529
C          -1.266067    0.709778    0.000117
C          -1.235034   -0.728373    0.000180
C          -2.449619   -1.432056    0.000071
H          -2.430957   -2.515805    0.000153
C          -3.659854   -0.754723   -0.000199
C          -3.683356    0.657574   -0.000352
C          -2.496849    1.369805   -0.000242
H           0.000000   -2.504943    0.000325
H           4.590747   -1.308400   -0.000316
H           2.430957   -2.515805    0.000160
H           2.513991    2.454179   -0.000331
H           4.632219    1.179776   -0.000530
H          -0.000000    2.199030    0.870945
H          -4.590747   -1.308400   -0.000332
H          -4.632219    1.179776   -0.000532
H          -2.513991    2.454179   -0.000325
H           0.000000    2.199869   -0.869234
                   25
 energy=  -539.65831712095985     
C           3.655128   -0.760470   -0.000210
C           2.448319   -1.434159    0.000090
C           1.234689   -0.729260    0.000210
C           1.267309    0.714610    0.000130
C           2.496659    1.369879   -0.000270
C           3.679448    0.656690   -0.000380
C           0.000000   -1.419399    0.000310
C           0.000000    1.533729    0.000590
C          -1.267309    0.714610    0.000130
C          -1.234689   -0.729260    0.000200
C          -2.448319   -1.434159    0.000080
H          -2.426439   -2.518239    0.000170
C          -3.655128   -0.760470   -0.000220
C          -3.679448    0.656690   -0.000390
C          -2.496659    1.369879   -0.000270
H           0.000000   -2.503909    0.000360
H           4.587768   -1.312179   -0.000350
H           2.426439   -2.518239    0.000180
H           2.516609    2.454879   -0.000370
H           4.630788    1.175839   -0.000590
H           0.000000    2.204469    0.871870
H          -4.587768   -1.312179   -0.000370
H          -4.630788    1.175839   -0.000590
H          -2.516609    2.454879   -0.000360
H           0.000000    2.205399   -0.869970
