                   25
 energy=   0.0000000000000000     
C           3.688988   -0.715250   -0.000010
C           2.466479   -1.408959    0.000000
C           1.239069   -0.731810    0.000010
C           1.264439    0.677450    0.000010
C           2.496369    1.361859    0.000000
C           3.707148    0.672890   -0.000010
C           0.000000   -1.430269    0.000010
C           0.000000    1.456189    0.000020
C          -1.264439    0.677450    0.000000
C          -1.239069   -0.731810    0.000010
C          -2.466479   -1.408959    0.000000
H          -2.469789   -2.494389    0.000010
C          -3.688988   -0.715250   -0.000010
C          -3.707148    0.672890   -0.000020
C          -2.496369    1.361859   -0.000010
H           0.000000   -2.514059    0.000020
H           4.616298   -1.275849   -0.000020
H           2.469789   -2.494389   -0.000010
H           2.490989    2.447849    0.000010
H           4.644568    1.213939   -0.000010
H           0.000000    2.150679    0.861660
H          -4.616298   -1.275849   -0.000010
H          -4.644568    1.213939   -0.000030
H          -2.490989    2.447849   -0.000020
H           0.000000    2.150729   -0.861580
                   25
 energy=   0.0000000000000000     
C           3.685226   -0.720274   -0.000032
C           2.464461   -1.411759    0.000010
C           1.238583   -0.731526    0.000032
C           1.264758    0.681579    0.000023
C           2.496401    1.362750   -0.000030
C           3.704070    0.671090   -0.000051
C           0.000000   -1.429062    0.000043
C           0.000000    1.464805    0.000083
C          -1.264758    0.681579    0.000014
C          -1.238583   -0.731526    0.000031
C          -2.464461   -1.411759    0.000009
H          -2.464972   -2.497039    0.000028
C          -3.685226   -0.720274   -0.000033
C          -3.704070    0.671090   -0.000061
C          -2.496401    1.362750   -0.000039
H           0.000000   -2.512931    0.000058
H           4.613128   -1.279886   -0.000057
H           2.464972   -2.497039    0.000011
H           2.493835    2.448630   -0.000032
H           4.643037    1.209706   -0.000074
H           0.000000    2.156656    0.862794
H          -4.613128   -1.279886   -0.000050
H          -4.643037    1.209706   -0.000092
H          -2.493835    2.448630   -0.000058
H           0.000000    2.156803   -0.862512
                   25
 energy=   0.0000000000000000     
C           3.681464   -0.725299   -0.000054
C           2.462443   -1.414559    0.000020
C           1.238096   -0.731243    0.000054
C           1.265077    0.685707    0.000037
C           2.496433    1.363642   -0.000060
C           3.700993    0.669290   -0.000092
C           0.000000   -1.427854    0.000077
C           0.000000    1.473420    0.000147
C          -1.265077    0.685707    0.000029
C          -1.238096   -0.731243    0.000052
C          -2.462443   -1.414559    0.000018
H          -2.460156   -2.499689    0.000046
C          -3.681464   -0.725299   -0.000057
C          -3.700993    0.669290   -0.000102
C          -2.496433    1.363642   -0.000068
H           0.000000   -2.511803    0.000096
H           4.609958   -1.283923   -0.000093
H           2.460156   -2.499689    0.000032
H           2.496682    2.449411   -0.000074
H           4.641506    1.205473   -0.000139
H           0.000000    2.162632    0.863928
H          -4.609958   -1.283923   -0.000090
H          -4.641506    1.205473   -0.000154
H          -2.496682    2.449411   -0.000096
H           0.000000    2.162878   -0.863444
                   25
 energy=   0.0000000000000000     
C           3.677702   -0.730323   -0.000077
C           2.460426   -1.417359    0.000030
C           1.237609   -0.730960    0.000077
C           1.265396    0.689836    0.000050
C           2.496465    1.364533   -0.000090
C           3.697915    0.667490   -0.000133
C           0.000000   -1.426646    0.000110
C           0.000000    1.482036    0.000210
C          -1.265396    0.689836    0.000043
C          -1.237609   -0.730960    0.000073
C          -2.460426   -1.417359    0.000027
H          -2.455339   -2.502339    0.000063
C          -3.677702   -0.730323   -0.000080
C          -3.697915    0.667490   -0.000143
C          -2.496465    1.364533   -0.000097
H           0.000000   -2.510675    0.000133
H           4.606788   -1.287959   -0.000130
H           2.455339   -2.502339    0.000053
H           2.499529    2.450192   -0.000117
H           4.639974    1.201239   -0.000203
H           0.000000    2.168609    0.865063
H          -4.606788   -1.287959   -0.000130
H          -4.639974    1.201239   -0.000217
H          -2.499529    2.450192   -0.000133
H           0.000000    2.168952   -0.864376
                   25
 energy=   0.0000000000000000     
C           3.673939   -0.735347   -0.000099
C           2.458408   -1.420159    0.000040
C           1.237123   -0.730676    0.000099
C           1.265715    0.693965    0.000063
C           2.496498    1.365424   -0.000120
C           3.694837    0.665690   -0.000174
C           0.000000   -1.425438    0.000143
C           0.000000    1.490652    0.000273
C          -1.265715    0.693965    0.000058
C          -1.237123   -0.730676    0.000094
C          -2.458408   -1.420159    0.000036
H          -2.450522   -2.504989    0.000081
C          -3.673939   -0.735347   -0.000103
C          -3.694837    0.665690   -0.000184
C          -2.496498    1.365424   -0.000126
H           0.000000   -2.509548    0.000171
H           4.603618   -1.291996   -0.000167
H           2.450522   -2.504989    0.000074
H           2.502375    2.450973   -0.000159
H           4.638443    1.197006   -0.000268
H           0.000000    2.174586    0.866197
H          -4.603618   -1.291996   -0.000170
H          -4.638443    1.197006   -0.000279
H          -2.502375    2.450973   -0.000171
H           0.000000    2.175027   -0.865308
                   25
 energy=   0.0000000000000000     
C           3.670177   -0.740372   -0.000121
C           2.456390   -1.422959    0.000050
C           1.236636   -0.730393    0.000121
C           1.266034    0.698094    0.000077
C           2.496530    1.366315   -0.000150
C           3.691759    0.663890   -0.000216
C           0.000000   -1.424230    0.000177
C           0.000000    1.499267    0.000337
C          -1.266034    0.698094    0.000072
C          -1.236636   -0.730393    0.000116
C          -2.456390   -1.422959    0.000044
H          -2.445706   -2.507639    0.000099
C          -3.670177   -0.740372   -0.000127
C          -3.691759    0.663890   -0.000226
C          -2.496530    1.366315   -0.000154
H           0.000000   -2.508420    0.000209
H           4.600448   -1.296033   -0.000203
H           2.445706   -2.507639    0.000096
H           2.505222    2.451754   -0.000201
H           4.636912    1.192773   -0.000332
H           0.000000    2.180562    0.867332
H          -4.600448   -1.296033   -0.000210
H          -4.636912    1.192773   -0.000341
H          -2.505222    2.451754   -0.000209
H           0.000000    2.181101   -0.866241
                   25
 energy=   0.0000000000000000     
C           3.666415   -0.745396   -0.000143
C           2.454372   -1.425759    0.000060
C           1.236149   -0.730110    0.000143
C           1.266353    0.702223    0.000090
C           2.496562    1.367206   -0.000180
C           3.688682    0.662090   -0.000257
C           0.000000   -1.423023    0.000210
C           0.000000    1.507883    0.000400
C          -1.266353    0.702223    0.000087
C          -1.236149   -0.730110    0.000137
C          -2.454372   -1.425759    0.000053
H          -2.440889   -2.510289    0.000117
C          -3.666415   -0.745396   -0.000150
C          -3.688682    0.662090   -0.000267
C          -2.496562    1.367206   -0.000183
H           0.000000   -2.507292    0.000247
H           4.597278   -1.300069   -0.000240
H           2.440889   -2.510289    0.000117
H           2.508069    2.452536   -0.000243
H           4.635381    1.188539   -0.000397
H           0.000000    2.186539    0.868466
H          -4.597278   -1.300069   -0.000250
H          -4.635381    1.188539   -0.000403
H          -2.508069    2.452536   -0.000247
H           0.000000    2.187176   -0.867173
                   25
 energy=   0.0000000000000000     
C           3.662653   -0.750421   -0.000166
C           2.452354   -1.428559    0.000070
C           1.235663   -0.729826    0.000166
C           1.266672    0.706352    0.000103
C           2.496594    1.368097   -0.000210
C           3.685604    0.660290   -0.000298
C           0.000000   -1.421815    0.000243
C           0.000000    1.516498    0.000463
C          -1.266672    0.706352    0.000101
C          -1.235663   -0.729826    0.000158
C          -2.452354   -1.428559    0.000062
H          -2.436072   -2.512939    0.000134
C          -3.662653   -0.750421   -0.000173
C          -3.685604    0.660290   -0.000308
C          -2.496594    1.368097   -0.000212
H           0.000000   -2.506164    0.000284
H           4.594108   -1.304106   -0.000277
H           2.436072   -2.512939    0.000138
H           2.510915    2.453317   -0.000286
H           4.633850    1.184306   -0.000461
H           0.000000    2.192516    0.869601
H          -4.594108   -1.304106   -0.000290
H          -4.633850    1.184306   -0.000466
H          -2.510915    2.453317   -0.000284
H           0.000000    2.193250   -0.868105
                   25
 energy=   0.0000000000000000     
C           3.658891   -0.755445   -0.000188
C           2.450337   -1.431359    0.000080
C           1.235176   -0.729543    0.000188
C           1.266991    0.710481    0.000117
C           2.496627    1.368988   -0.000240
C           3.682526    0.658490   -0.000339
C           0.000000   -1.420607    0.000277
C           0.000000    1.525114    0.000527
C          -1.266991    0.710481    0.000116
C          -1.235176   -0.729543    0.000179
C          -2.450337   -1.431359    0.000071
H          -2.431256   -2.515589    0.000152
C          -3.658891   -0.755445   -0.000197
C          -3.682526    0.658490   -0.000349
C          -2.496627    1.368988   -0.000241
H           0.000000   -2.505037    0.000322
H           4.590938   -1.308143   -0.000313
H           2.431256   -2.515589    0.000159
H           2.513762    2.454098   -0.000328
H           4.632319    1.180073   -0.000526
H           0.000000    2.198492    0.870735
H          -4.590938   -1.308143   -0.000330
H          -4.632319    1.180073   -0.000528
H          -2.513762    2.454098   -0.000322
H           0.000000    2.199325   -0.869037
                   25
 energy=   0.0000000000000000     
C           3.655128   -0.760470   -0.000210
C           2.448319   -1.434159    0.000090
C           1.234689   -0.729260    0.000210
C           1.267309    0.714610    0.000130
C           2.496659    1.369879   -0.000270
C           3.679448    0.656690   -0.000380
C           0.000000   -1.419399    0.000310
C           0.000000    1.533729    0.000590
C          -1.267309    0.714610    0.000130
C          -1.234689   -0.729260    0.000200
C          -2.448319   -1.434159    0.000080
H          -2.426439   -2.518239    0.000170
C          -3.655128   -0.760470   -0.000220
C          -3.679448    0.656690   -0.000390
C          -2.496659    1.369879   -0.000270
H           0.000000   -2.503909    0.000360
H           4.587768   -1.312179   -0.000350
H           2.426439   -2.518239    0.000180
H           2.516609    2.454879   -0.000370
H           4.630788    1.175839   -0.000590
H           0.000000    2.204469    0.871870
H          -4.587768   -1.312179   -0.000370
H          -4.630788    1.175839   -0.000590
H          -2.516609    2.454879   -0.000360
H           0.000000    2.205399   -0.869970
