                   25
 energy=  -539.66372689577724     
C           3.688988   -0.715250   -0.000010
C           2.466479   -1.408959    0.000000
C           1.239069   -0.731810    0.000010
C           1.264439    0.677450    0.000010
C           2.496369    1.361859    0.000000
C           3.707148    0.672890   -0.000010
C           0.000000   -1.430269    0.000010
C           0.000000    1.456189    0.000020
C          -1.264439    0.677450    0.000000
C          -1.239069   -0.731810    0.000010
C          -2.466479   -1.408959    0.000000
H          -2.469789   -2.494389    0.000010
C          -3.688988   -0.715250   -0.000010
C          -3.707148    0.672890   -0.000020
C          -2.496369    1.361859   -0.000010
H           0.000000   -2.514059    0.000020
H           4.616298   -1.275849   -0.000020
H           2.469789   -2.494389   -0.000010
H           2.490989    2.447849    0.000010
H           4.644568    1.213939   -0.000010
H           0.000000    2.150679    0.861660
H          -4.616298   -1.275849   -0.000010
H          -4.644568    1.213939   -0.000030
H          -2.490989    2.447849   -0.000020
H           0.000000    2.150729   -0.861580
                   25
 energy=  -539.66409251730533     
C           3.687579   -0.720791   -0.000031
C           2.465189   -1.413196    0.000009
C           1.239007   -0.730926    0.000031
C           1.264055    0.681251    0.000023
C           2.496828    1.364672   -0.000027
C           3.706017    0.671687   -0.000048
C          -0.000000   -1.431283    0.000042
C          -0.000000    1.465266    0.000078
C          -1.264055    0.681251    0.000014
C          -1.239007   -0.730926    0.000029
C          -2.465189   -1.413196    0.000008
H          -2.465406   -2.497338    0.000027
C          -3.687579   -0.720791   -0.000032
C          -3.706017    0.671687   -0.000058
C          -2.496828    1.364672   -0.000037
H          -0.000000   -2.513458    0.000055
H           4.613893   -1.279878   -0.000054
H           2.465406   -2.497338    0.000010
H           2.493812    2.449097   -0.000030
H           4.643656    1.210228   -0.000070
H          -0.000000    2.156463    0.863166
H          -4.613893   -1.279878   -0.000047
H          -4.643656    1.210228   -0.000088
H          -2.493812    2.449097   -0.000055
H           0.000000    2.156604   -0.862897
                   25
 energy=  -539.66401145338875     
C           3.683913   -0.725527   -0.000055
C           2.462668   -1.416070    0.000020
C           1.238343   -0.730057    0.000055
C           1.264015    0.685197    0.000037
C           2.496938    1.365625   -0.000059
C           3.703110    0.669268   -0.000093
C          -0.000000   -1.429920    0.000078
C          -0.000000    1.473601    0.000145
C          -1.264015    0.685197    0.000030
C          -1.238343   -0.730057    0.000052
C          -2.462668   -1.416070    0.000018
H          -2.460176   -2.500216    0.000046
C          -3.683913   -0.725527   -0.000057
C          -3.703110    0.669268   -0.000103
C          -2.496938    1.365625   -0.000067
H          -0.000000   -2.512214    0.000096
H           4.610471   -1.284221   -0.000094
H           2.460176   -2.500216    0.000033
H           2.496911    2.449973   -0.000075
H           4.642014    1.205621   -0.000140
H          -0.000000    2.162951    0.864374
H          -4.610471   -1.284221   -0.000090
H          -4.642014    1.205621   -0.000156
H          -2.496911    2.449973   -0.000096
H           0.000000    2.163198   -0.863885
                   25
 energy=  -539.66382618809564     
C           3.680334   -0.730126   -0.000078
C           2.460226   -1.418842    0.000030
C           1.237696   -0.729243    0.000078
C           1.263986    0.689044    0.000052
C           2.497050    1.366532   -0.000090
C           3.700271    0.666923   -0.000137
C           0.000000   -1.428580    0.000114
C          -0.000000    1.481687    0.000210
C          -1.263986    0.689044    0.000045
C          -1.237696   -0.729243    0.000074
C          -2.460226   -1.418842    0.000027
H          -2.455099   -2.503005    0.000065
C          -3.680334   -0.730126   -0.000082
C          -3.700271    0.666923   -0.000146
C          -2.497050    1.366532   -0.000097
H           0.000000   -2.511002    0.000136
H           4.607145   -1.288433   -0.000132
H           2.455099   -2.503005    0.000055
H           2.499918    2.450822   -0.000120
H           4.640415    1.201147   -0.000208
H          -0.000000    2.169246    0.865543
H          -4.607145   -1.288433   -0.000132
H          -4.640415    1.201147   -0.000221
H          -2.499918    2.450822   -0.000136
H           0.000000    2.169596   -0.864842
                   25
 energy=  -539.66353948857784     
C           3.676814   -0.734643   -0.000101
C           2.457821   -1.421567    0.000040
C           1.237067   -0.728449    0.000101
C           1.263950    0.692822    0.000066
C           2.497167    1.367424   -0.000121
C           3.697485    0.664616   -0.000179
C          -0.000000   -1.427261    0.000149
C           0.000000    1.489636    0.000274
C          -1.263950    0.692822    0.000061
C          -1.237067   -0.728449    0.000096
C          -2.457821   -1.421567    0.000036
H          -2.450108   -2.505743    0.000083
C          -3.676814   -0.734643   -0.000106
C          -3.697485    0.664616   -0.000189
C          -2.497167    1.367424   -0.000126
H           0.000000   -2.509812    0.000175
H           4.603878   -1.292573   -0.000170
H           2.450108   -2.505743    0.000077
H           2.502874    2.451659   -0.000163
H           4.638842    1.196748   -0.000275
H          -0.000000    2.175434    0.866692
H          -4.603878   -1.292573   -0.000174
H          -4.638842    1.196748   -0.000286
H          -2.502874    2.451659   -0.000175
H           0.000000    2.175885   -0.865782
                   25
 energy=  -539.66314892144305     
C           3.673295   -0.739160   -0.000125
C           2.455418   -1.424292    0.000050
C           1.236436   -0.727662    0.000124
C           1.263920    0.696607    0.000080
C           2.497282    1.368316   -0.000151
C           3.694696    0.662307   -0.000222
C           0.000000   -1.425944    0.000183
C          -0.000000    1.497595    0.000338
C          -1.263920    0.696607    0.000076
C          -1.236436   -0.727662    0.000118
C          -2.455418   -1.424292    0.000045
H          -2.445118   -2.508481    0.000101
C          -3.673295   -0.739160   -0.000130
C          -3.694696    0.662307   -0.000232
C          -2.497282    1.368316   -0.000156
H           0.000000   -2.508621    0.000214
H           4.600611   -1.296714   -0.000208
H           2.445118   -2.508481    0.000099
H           2.505830    2.452495   -0.000207
H           4.637270    1.192352   -0.000341
H          -0.000000    2.181622    0.867842
H          -4.600611   -1.296714   -0.000215
H          -4.637270    1.192352   -0.000350
H          -2.505830    2.452495   -0.000214
H           0.000000    2.182175   -0.866723
                   25
 energy=  -539.66265291173647     
C           3.669777   -0.743679   -0.000148
C           2.453014   -1.427022    0.000060
C           1.235805   -0.726881    0.000147
C           1.263891    0.700396    0.000094
C           2.497396    1.369209   -0.000181
C           3.691906    0.660000   -0.000265
C          -0.000000   -1.424628    0.000218
C           0.000000    1.505561    0.000403
C          -1.263891    0.700396    0.000091
C          -1.235805   -0.726881    0.000140
C          -2.453014   -1.427022    0.000054
H          -2.440127   -2.511219    0.000120
C          -3.669777   -0.743679   -0.000155
C          -3.691906    0.660000   -0.000274
C          -2.497396    1.369209   -0.000185
H           0.000000   -2.507427    0.000253
H           4.597345   -1.300856   -0.000245
H           2.440127   -2.511219    0.000120
H           2.508787    2.453330   -0.000251
H           4.635698    1.187955   -0.000408
H          -0.000000    2.187811    0.868991
H          -4.597345   -1.300856   -0.000256
H          -4.635698    1.187955   -0.000414
H          -2.508787    2.453330   -0.000253
H           0.000000    2.188465   -0.867663
                   25
 energy=  -539.66187015318155     
C           3.665432   -0.749218   -0.000175
C           2.450297   -1.430195    0.000072
C           1.235093   -0.726174    0.000174
C           1.264024    0.705050    0.000111
C           2.497494    1.370170   -0.000217
C           3.688435    0.657442   -0.000315
C          -0.000000   -1.423020    0.000259
C          -0.000000    1.515207    0.000479
C          -1.264024    0.705050    0.000109
C          -1.235093   -0.726174    0.000166
C          -2.450297   -1.430195    0.000064
H          -2.434248   -2.514441    0.000141
C          -3.665432   -0.749218   -0.000183
C          -3.688435    0.657442   -0.000325
C          -2.497494    1.370170   -0.000219
H           0.000000   -2.506030    0.000299
H           4.593497   -1.305742   -0.000290
H           2.434248   -2.514441    0.000146
H           2.512263    2.454304   -0.000302
H           4.633844    1.182781   -0.000487
H          -0.000000    2.195084    0.870332
H          -4.593497   -1.305742   -0.000304
H          -4.633844    1.182781   -0.000490
H          -2.512263    2.454304   -0.000299
H           0.000000    2.195857   -0.868758
                   25
 energy=  -539.66070330722221     
C           3.660674   -0.754856   -0.000200
C           2.448045   -1.433096    0.000084
C           1.234536   -0.726216    0.000199
C           1.264670    0.709838    0.000126
C           2.497424    1.370798   -0.000251
C           3.684455    0.655510   -0.000360
C          -0.000000   -1.421262    0.000296
C          -0.000000    1.525006    0.000550
C          -1.264670    0.709838    0.000125
C          -1.234536   -0.726216    0.000190
C          -2.448045   -1.433096    0.000074
H          -2.428894   -2.517248    0.000161
C          -3.660674   -0.754856   -0.000209
C          -3.684455    0.655510   -0.000370
C          -2.497424    1.370798   -0.000252
H           0.000000   -2.504693    0.000341
H           4.589864   -1.310180   -0.000331
H           2.428894   -2.517248    0.000169
H           2.515375    2.455016   -0.000349
H           4.632034    1.178052   -0.000558
H          -0.000000    2.201659    0.871502
H          -4.589864   -1.310180   -0.000349
H          -4.632034    1.178052   -0.000559
H          -2.515375    2.455016   -0.000341
H          -0.000000    2.202541   -0.869704
                   25
 energy=  -539.65831712095985     
C           3.655128   -0.760470   -0.000210
C           2.448319   -1.434159    0.000090
C           1.234689   -0.729260    0.000210
C           1.267309    0.714610    0.000130
C           2.496659    1.369879   -0.000270
C           3.679448    0.656690   -0.000380
C           0.000000   -1.419399    0.000310
C           0.000000    1.533729    0.000590
C          -1.267309    0.714610    0.000130
C          -1.234689   -0.729260    0.000200
C          -2.448319   -1.434159    0.000080
H          -2.426439   -2.518239    0.000170
C          -3.655128   -0.760470   -0.000220
C          -3.679448    0.656690   -0.000390
C          -2.496659    1.369879   -0.000270
H           0.000000   -2.503909    0.000360
H           4.587768   -1.312179   -0.000350
H           2.426439   -2.518239    0.000180
H           2.516609    2.454879   -0.000370
H           4.630788    1.175839   -0.000590
H           0.000000    2.204469    0.871870
H          -4.587768   -1.312179   -0.000370
H          -4.630788    1.175839   -0.000590
H          -2.516609    2.454879   -0.000360
H           0.000000    2.205399   -0.869970
