                   25
 energy=  -539.66372689577724     
C           3.688988   -0.715250   -0.000010
C           2.466479   -1.408959    0.000000
C           1.239069   -0.731810    0.000010
C           1.264439    0.677450    0.000010
C           2.496369    1.361859    0.000000
C           3.707148    0.672890   -0.000010
C           0.000000   -1.430269    0.000010
C           0.000000    1.456189    0.000020
C          -1.264439    0.677450    0.000000
C          -1.239069   -0.731810    0.000010
C          -2.466479   -1.408959    0.000000
H          -2.469789   -2.494389    0.000010
C          -3.688988   -0.715250   -0.000010
C          -3.707148    0.672890   -0.000020
C          -2.496369    1.361859   -0.000010
H           0.000000   -2.514059    0.000020
H           4.616298   -1.275849   -0.000020
H           2.469789   -2.494389   -0.000010
H           2.490989    2.447849    0.000010
H           4.644568    1.213939   -0.000010
H           0.000000    2.150679    0.861660
H          -4.616298   -1.275849   -0.000010
H          -4.644568    1.213939   -0.000030
H          -2.490989    2.447849   -0.000020
H           0.000000    2.150729   -0.861580
                   25
 energy=  -539.43138762740227     
C           3.300674   -0.715249   -0.000010
C           2.206849   -1.408960   -0.000000
C           1.064650   -0.737459    0.000017
C           1.131340    0.677449    0.000010
C           2.233593    1.361860   -0.000000
C           3.361397    0.671312   -0.000017
C          -0.043597   -1.437426    0.000013
C          -0.033164    1.479999    0.000025
C          -1.175349    0.677449   -0.000003
C          -1.175793   -0.692299   -0.000038
C          -2.275840   -1.375135   -0.000204
H          -2.209809   -2.494387    0.000010
C          -3.410198   -0.693143   -0.000037
C          -3.402540    0.655149   -0.000067
C          -2.259999    1.343685   -0.000024
H           0.026251   -2.518031    0.000022
H           4.157306   -1.255434   -0.000025
H           2.242018   -2.464801   -0.000043
H           2.228777    2.447849    0.000010
H           4.183328    1.195990   -0.000007
H          -0.000000    2.150680    0.861660
H          -4.112816   -1.266381    0.000153
H          -4.221868    1.209899    0.000005
H          -2.240801    2.447848   -0.000021
H          -0.000000    2.150730   -0.861580
                   25
 energy=  -538.62546197292363     
C           2.912360   -0.715249   -0.000010
C           1.947220   -1.408960   -0.000000
C           0.890230   -0.743108    0.000024
C           0.998240    0.677448    0.000010
C           1.970818    1.361861    0.000000
C           3.015646    0.669733   -0.000024
C          -0.087195   -1.444584    0.000017
C          -0.066328    1.503810    0.000030
C          -1.086258    0.677448   -0.000007
C          -1.112516   -0.652788   -0.000085
C          -2.085201   -1.341312   -0.000409
H          -1.949829   -2.494386    0.000010
C          -3.131407   -0.671036   -0.000063
C          -3.097932    0.637409   -0.000113
C          -2.023630    1.325511   -0.000037
H           0.052502   -2.522003    0.000024
H           3.698314   -1.235020   -0.000030
H           2.014246   -2.435214   -0.000075
H           1.966565    2.447849    0.000010
H           3.722090    1.178045   -0.000003
H          -0.000001    2.150680    0.861660
H          -3.609340   -1.256930    0.000316
H          -3.799168    1.205862    0.000040
H          -1.990613    2.447847   -0.000023
H          -0.000001    2.150730   -0.861580
                   25
 energy=  -536.98874682528344     
C           2.524046   -0.715247   -0.000010
C           1.687589   -1.408962   -0.000000
C           0.715810   -0.748756    0.000030
C           0.865140    0.677447    0.000010
C           1.708043    1.361862    0.000000
C           2.669895    0.668155   -0.000031
C          -0.130792   -1.451742    0.000020
C          -0.099491    1.527621    0.000035
C          -0.997165    0.677446   -0.000010
C          -1.049238   -0.613277   -0.000133
C          -1.894562   -1.307489   -0.000613
H          -1.689848   -2.494385    0.000010
C          -2.852617   -0.648926   -0.000090
C          -2.793324    0.619668   -0.000160
C          -1.787262    1.307339   -0.000051
H           0.078754   -2.525976    0.000026
H           3.239321   -1.214606   -0.000034
H           1.786472   -2.405626   -0.000108
H           1.704351    2.447849    0.000010
H           3.260855    1.160105    0.000000
H          -0.000001    2.150680    0.861661
H          -3.105853   -1.247499    0.000478
H          -3.376468    1.201828    0.000076
H          -1.740424    2.447847   -0.000024
H          -0.000001    2.150730   -0.861581
                   25
 energy=  -534.20695028324690     
C           2.135732   -0.715244   -0.000010
C           1.427959   -1.408965   -0.000000
C           0.541391   -0.754403    0.000037
C           0.732039    0.677444    0.000010
C           1.445268    1.361865    0.000000
C           2.324143    0.666574   -0.000038
C          -0.174391   -1.458902    0.000023
C          -0.132655    1.551432    0.000040
C          -0.908071    0.677441   -0.000013
C          -0.985960   -0.573764   -0.000181
C          -1.703923   -1.273668   -0.000818
H          -1.429868   -2.494386    0.000010
C          -2.573831   -0.626817   -0.000117
C          -2.488716    0.601926   -0.000207
C          -1.550895    1.289169   -0.000065
H           0.105004   -2.529948    0.000028
H           2.780333   -1.194195   -0.000039
H           1.558700   -2.376038   -0.000140
H           1.442138    2.447848    0.000010
H           2.799629    1.142179    0.000004
H          -0.000001    2.150682    0.861662
H          -2.602346   -1.238055    0.000641
H          -2.953768    1.197799    0.000111
H          -1.490236    2.447847   -0.000026
H          -0.000001    2.150732   -0.861582
                   25
 energy=  -530.24996979306763     
C           1.747419   -0.715240   -0.000010
C           1.168328   -1.408969    0.000000
C           0.366971   -0.760049    0.000044
C           0.598937    0.677441    0.000010
C           1.182494    1.361869    0.000000
C           1.978391    0.664991   -0.000045
C          -0.217990   -1.466062    0.000027
C          -0.165819    1.575244    0.000045
C          -0.818975    0.677433   -0.000017
C          -0.922681   -0.534251   -0.000229
C          -1.513281   -1.239847   -0.001022
H          -1.169880   -2.494390    0.000010
C          -2.295044   -0.604711   -0.000144
C          -2.184109    0.584184   -0.000253
C          -1.314530    1.271002   -0.000078
H           0.131255   -2.533924    0.000030
H           2.321338   -1.173788   -0.000044
H           1.330924   -2.346450   -0.000173
H           1.179920    2.447849    0.000010
H           2.338399    1.124274    0.000007
H          -0.000002    2.150683    0.861664
H          -2.200362   -1.233397    0.001621
H          -2.531058    1.193774    0.000146
H          -1.240043    2.447853   -0.000027
H          -0.000002    2.150733   -0.861584
                   25
 energy=  -523.65254165434646     
C           1.359103   -0.715232   -0.000010
C           0.908698   -1.408977    0.000000
C           0.192553   -0.765693    0.000051
C           0.465837    0.677436    0.000010
C           0.919719    1.361876    0.000000
C           1.632639    0.663405   -0.000052
C          -0.261589   -1.473225    0.000030
C          -0.198979    1.599058    0.000050
C          -0.729880    0.677418   -0.000020
C          -0.859404   -0.494735   -0.000276
C          -1.322629   -1.206027   -0.001227
H          -0.909883   -2.494396    0.000010
C          -2.016258   -0.582607   -0.000170
C          -1.879502    0.566442   -0.000300
C          -1.078169    1.252840   -0.000092
H           0.157506   -2.537904    0.000032
H           1.862346   -1.153387   -0.000049
H           1.103149   -2.316863   -0.000205
H           0.917704    2.447850    0.000010
H           1.877164    1.106407    0.000011
H          -0.000002    2.150686    0.861668
H          -1.798543   -1.228770    0.002603
H          -2.108341    1.189750    0.000181
H          -0.989848    2.447853   -0.000028
H          -0.000002    2.150736   -0.861588
                   25
 energy=  -514.36082646206296     
C           0.970788   -0.715223   -0.000010
C           0.649069   -1.408985   -0.000000
C           0.018133   -0.771339    0.000058
C           0.332736    0.677430    0.000010
C           0.656946    1.361882   -0.000000
C           1.286894    0.661822   -0.000058
C          -0.305185   -1.480391    0.000034
C          -0.232134    1.622883    0.000055
C          -0.640785    0.677398   -0.000023
C          -0.796128   -0.455218   -0.000324
C          -1.131997   -1.172200   -0.001432
H          -0.649873   -2.494404    0.000010
C          -1.737472   -0.560502   -0.000197
C          -1.574897    0.548701   -0.000347
C          -0.841813    1.234674   -0.000106
H           0.183761   -2.541890    0.000034
H           1.403342   -1.132986   -0.000053
H           0.875363   -2.287277   -0.000238
H           0.655463    2.447858    0.000010
H           1.424764    1.117945    0.000019
H          -0.000001    2.150688    0.861676
H          -1.564451   -1.371259    0.015162
H          -1.685598    1.185726    0.000217
H          -0.739625    2.447871   -0.000030
H          -0.000001    2.150737   -0.861596
                   25
 energy=  -493.96199343409774     
C           0.582480   -0.715211   -0.000010
C           0.389451   -1.408994    0.000000
C          -0.156286   -0.776994    0.000065
C           0.199634    0.677422    0.000010
C           0.394179    1.361883   -0.000000
C           0.941158    0.660242   -0.000065
C          -0.348765   -1.487563    0.000035
C          -0.265296    1.646744    0.000061
C          -0.551704    0.677373   -0.000026
C          -0.732853   -0.415685   -0.000372
C          -0.941396   -1.138364   -0.001638
H          -0.389837   -2.494408    0.000010
C          -1.458696   -0.538398   -0.000224
C          -1.270302    0.530958   -0.000393
C          -0.605444    1.216483   -0.000120
H           0.210023   -2.545879    0.000036
H           0.944293   -1.112578   -0.000059
H           0.647549   -2.257668   -0.000271
H           0.393174    2.447875    0.000008
H           0.961097    1.136282    0.000032
H           0.000001    2.150692    0.861687
H          -0.810337   -1.593669    0.048055
H          -1.262828    1.181686    0.000253
H          -0.489373    2.447877   -0.000030
H           0.000003    2.150743   -0.861606
                   25
 energy=  -440.83210216690151     
C           0.194225   -0.715185   -0.000010
C           0.129925   -1.409050   -0.000000
C          -0.330693   -0.782657    0.000072
C           0.066554    0.677403    0.000010
C           0.131502    1.361890   -0.000000
C           0.595461    0.658624   -0.000072
C          -0.392414   -1.494811    0.000040
C          -0.298516    1.670641    0.000065
C          -0.462632    0.677387   -0.000056
C          -0.669556   -0.376121   -0.000420
C          -0.750851   -1.104585   -0.001845
H          -0.129934   -2.494402    0.000010
C          -1.179967   -0.516305   -0.000250
C          -0.965739    0.513190   -0.000440
C          -0.369075    1.198254   -0.000133
H           0.236258   -2.550109    0.000038
H           0.485537   -1.092086   -0.000061
H           0.419772   -2.227969   -0.000303
H           0.131049    2.447887    0.000010
H           0.493031    1.052642    0.000024
H           0.000001    2.150687    0.861688
H          -0.084823   -1.190122    0.001461
H          -0.840470    1.177681    0.000412
H          -0.239129    2.447895   -0.000032
H           0.000000    2.150737   -0.861608
                   25
 energy=  -436.73156423513404     
C          -0.194090   -0.715233   -0.000009
C          -0.129749   -1.408964    0.000004
C          -0.561572   -1.096094    0.002848
C          -0.066551    0.677482    0.000084
C          -0.131439    1.361883    0.000004
C          -0.012871    0.150929   -0.002288
C          -0.287306   -1.914242    0.000242
C          -0.241466    1.879532    0.000109
C          -0.066596    0.677451   -0.529266
C          -0.491535   -0.277478   -0.000537
C          -0.819245   -1.548957   -0.089852
H           0.130293   -2.494444    0.000011
C          -0.861107   -0.656306   -0.002593
C          -0.502007    0.353227   -0.000752
C           0.305298    1.054124   -0.001415
H           0.145726   -2.864425    0.000196
H           0.160783   -1.032126    0.004325
H           0.139949   -2.124250   -0.000459
H          -0.131473    2.447977    0.000013
H          -0.427843    0.988529    0.004518
H           0.000003    2.150688    0.861689
H           0.459051   -1.253462    0.000480
H          -0.640981    1.211190    0.208149
H           0.239614    2.447887   -0.000080
H           0.000001    2.150743   -0.861616
                   25
 energy=  -437.87587788123227     
C          -0.582573   -0.715231   -0.000009
C          -0.389529   -1.409005    0.000000
C          -0.112213   -0.957881    0.000503
C          -0.199675    0.677484    0.000010
C          -0.394224    1.361854    0.000001
C          -0.713888    0.552347   -0.000539
C          -0.008497   -1.776382    0.000173
C          -0.127059    1.818782    0.000097
C           0.329621    0.677444   -0.000247
C          -0.191023   -0.359144   -0.000441
C           0.268510   -1.325423   -0.006257
H           0.389857   -2.494415    0.000009
C           0.299184   -0.558770   -0.000768
C           0.068252    0.217186   -0.001132
C           0.204098    1.231034   -0.000109
H           0.029859   -2.581304    0.000053
H          -0.785542   -1.145239   -0.000269
H          -0.166845   -2.267058   -0.000262
H          -0.393114    2.447912    0.000010
H          -0.646200    0.958017    0.000339
H           0.000007    2.150689    0.861695
H           0.855134   -1.207666    0.001166
H           0.650078    1.066442    0.003352
H           0.306711    2.447887   -0.000029
H           0.000007    2.150738   -0.861615
                   25
 energy=  -486.29788234244950     
C          -0.970810   -0.715212   -0.000010
C          -0.649114   -1.409003    0.000000
C          -0.336404   -0.891012    0.000348
C          -0.332737    0.677435    0.000010
C          -0.656961    1.361870   -0.000000
C          -0.994542    0.590179   -0.000373
C          -0.071048   -1.671718    0.000124
C          -0.134440    1.733615    0.000079
C           0.353312    0.677463   -0.000143
C          -0.032405   -0.424100   -0.000362
C           0.464973   -1.302525   -0.004473
H           0.649811   -2.494409    0.000010
C           0.617647   -0.577777   -0.000555
C           0.568556    0.193964   -0.001137
C           0.490595    1.247409   -0.000096
H           0.059227   -2.564638    0.000046
H          -1.212443   -1.158287   -0.000197
H          -0.452849   -2.298501   -0.000225
H          -0.655367    2.447874    0.000010
H          -1.131583    1.046410    0.000267
H           0.000006    2.150688    0.861686
H           1.325200   -1.216160    0.001016
H           1.067846    1.109395    0.002153
H           0.579606    2.447863   -0.000029
H           0.000006    2.150738   -0.861606
                   25
 energy=  -511.62740521292636     
C          -1.359109   -0.715225   -0.000010
C          -0.908721   -1.408997    0.000000
C          -0.560644   -0.824092    0.000194
C          -0.465833    0.677437    0.000010
C          -0.919722    1.361882   -0.000000
C          -1.275209    0.627978   -0.000207
C          -0.133611   -1.567091    0.000074
C          -0.141839    1.648468    0.000061
C           0.377074    0.677444   -0.000079
C           0.126170   -0.489071   -0.000283
C           0.661411   -1.279657   -0.002696
H           0.909844   -2.494400    0.000010
C           0.936104   -0.596759   -0.000343
C           0.969667    0.393511   -0.000684
C           0.777135    1.263745   -0.000084
H           0.088680   -2.548291    0.000037
H          -1.638980   -1.171188   -0.000119
H          -0.738894   -2.329872   -0.000191
H          -0.917659    2.447863    0.000010
H          -1.603614    1.089804    0.000136
H           0.000001    2.150687    0.861672
H           1.795441   -1.224684    0.000869
H           1.484998    1.152577    0.001141
H           0.852722    2.447861   -0.000027
H           0.000001    2.150737   -0.861592
                   25
 energy=  -522.74042514978112     
C          -1.747423   -0.715225   -0.000010
C          -1.168350   -1.408997    0.000000
C          -0.784876   -0.757208    0.000041
C          -0.598932    0.677437    0.000010
C          -1.182498    1.361882   -0.000000
C          -1.555885    0.665767   -0.000041
C          -0.196176   -1.462496    0.000025
C          -0.149228    1.563350    0.000043
C           0.400864    0.677444   -0.000015
C           0.284739   -0.553999   -0.000205
C           0.857876   -1.256773   -0.000920
H           1.169822   -2.494400    0.000010
C           1.254570   -0.615757   -0.000130
C           1.370763    0.593035   -0.000230
C           1.063676    1.280102   -0.000071
H           0.118137   -2.531965    0.000029
H          -2.065446   -1.184097   -0.000041
H          -1.024878   -2.361258   -0.000157
H          -1.179869    2.447863    0.000010
H          -2.075559    1.133241    0.000006
H           0.000001    2.150687    0.861672
H           2.265561   -1.233212    0.000722
H           1.902069    1.195752    0.000129
H           1.125753    2.447861   -0.000026
H           0.000001    2.150737   -0.861592
                   25
 energy=  -530.92054661607960     
C          -2.135730   -0.715240   -0.000010
C          -1.427965   -1.408974   -0.000000
C          -0.875718   -0.752135    0.000035
C          -0.732040    0.677442    0.000010
C          -1.445262    1.361873    0.000000
C          -1.986137    0.667200   -0.000035
C          -0.156947   -1.456041    0.000022
C          -0.119389    1.541911    0.000038
C           0.573607    0.677445   -0.000012
C           0.475605   -0.589567   -0.000162
C           1.179590   -1.287204   -0.000736
H           1.429857   -2.494389    0.000010
C           1.741449   -0.635661   -0.000106
C           1.838025    0.609013   -0.000188
C           1.350200    1.296445   -0.000059
H           0.094506   -2.528364    0.000027
H          -2.575652   -1.202402   -0.000037
H          -1.313908   -2.387873   -0.000127
H          -1.442134    2.447850    0.000010
H          -2.589382    1.149330    0.000003
H           0.000000    2.150684    0.861663
H           2.735789   -1.241736    0.000576
H           2.450620    1.199394    0.000097
H           1.398845    2.447848   -0.000025
H           0.000000    2.150734   -0.861583
                   25
 energy=  -535.50967016114726     
C          -2.524044   -0.715246   -0.000010
C          -1.687593   -1.408965   -0.000000
C          -0.966557   -0.747059    0.000028
C          -0.865141    0.677446    0.000010
C          -1.708039    1.361865   -0.000000
C          -2.416389    0.668626   -0.000029
C          -0.117711   -1.449595    0.000019
C          -0.089542    1.520479    0.000034
C           0.746317    0.677447   -0.000009
C           0.666473   -0.625129   -0.000119
C           1.501314   -1.317639   -0.000552
H           1.689841   -2.494386    0.000010
C           2.228332   -0.655561   -0.000082
C           2.305305    0.624986   -0.000146
C           1.636743    1.312794   -0.000047
H           0.070879   -2.524783    0.000025
H          -3.085809   -1.220747   -0.000033
H          -1.602879   -2.414502   -0.000098
H          -1.704349    2.447849    0.000010
H          -3.103179    1.165478   -0.000001
H          -0.000001    2.150681    0.861661
H           3.205919   -1.250263    0.000430
H           2.999110    1.203028    0.000065
H           1.671883    2.447847   -0.000024
H          -0.000001    2.150731   -0.861581
                   25
 energy=  -538.17177632420214     
C          -2.912359   -0.715248   -0.000010
C          -1.947221   -1.408962   -0.000000
C          -1.057396   -0.741977    0.000022
C          -0.998241    0.677448    0.000010
C          -1.970816    1.361862    0.000000
C          -2.846641    0.670048   -0.000022
C          -0.078474   -1.443153    0.000016
C          -0.059695    1.499049    0.000029
C           0.919025    0.677449   -0.000006
C           0.857338   -0.660690   -0.000076
C           1.823036   -1.348078   -0.000368
H           1.949826   -2.494386    0.000010
C           2.715217   -0.675458   -0.000058
C           2.772585    0.640955   -0.000104
C           1.923285    1.329147   -0.000035
H           0.047253   -2.521209    0.000024
H          -3.595971   -1.239108   -0.000029
H          -1.891851   -2.441131   -0.000069
H          -1.966564    2.447848    0.000010
H          -3.616977    1.181631   -0.000004
H          -0.000000    2.150680    0.861660
H           3.676049   -1.258792    0.000283
H           3.547600    1.206665    0.000033
H           1.944921    2.447847   -0.000022
H          -0.000000    2.150730   -0.861580
                   25
 energy=  -539.33988605077604     
C          -3.300674   -0.715249   -0.000010
C          -2.206850   -1.408960   -0.000000
C          -1.148233   -0.736894    0.000016
C          -1.131340    0.677449    0.000010
C          -2.233593    1.361860   -0.000000
C          -3.276895    0.671469   -0.000016
C          -0.039237   -1.436711    0.000013
C          -0.029847    1.477619    0.000025
C           1.091732    0.677450   -0.000003
C           1.048204   -0.696250   -0.000033
C           2.144758   -1.378518   -0.000184
H           2.209808   -2.494387    0.000010
C           3.202102   -0.695354   -0.000034
C           3.239866    0.656923   -0.000062
C           2.209827    1.345503   -0.000022
H           0.023626   -2.517634    0.000022
H          -4.106133   -1.257477   -0.000024
H          -2.180821   -2.467760   -0.000039
H          -2.228777    2.447849    0.000010
H          -4.130773    1.197784   -0.000007
H          -0.000000    2.150680    0.861660
H           4.146174   -1.267321    0.000137
H           4.096085    1.210302    0.000002
H           2.217955    2.447848   -0.000021
H          -0.000000    2.150730   -0.861580
                   25
 energy=  -539.66372812053828     
C          -3.688988   -0.715250   -0.000010
C          -2.466479   -1.408959    0.000000
C          -1.239069   -0.731810    0.000010
C          -1.264439    0.677450    0.000010
C          -2.496369    1.361859    0.000000
C          -3.707148    0.672890   -0.000010
C           0.000000   -1.430269    0.000010
C           0.000000    1.456189    0.000020
C           1.264439    0.677450    0.000000
C           1.239069   -0.731810    0.000010
C           2.466479   -1.408959    0.000000
H           2.469789   -2.494389    0.000010
C           3.688988   -0.715250   -0.000010
C           3.707148    0.672890   -0.000020
C           2.496369    1.361859   -0.000010
H           0.000000   -2.514059    0.000020
H          -4.616298   -1.275849   -0.000020
H          -2.469789   -2.494389   -0.000010
H          -2.490989    2.447849    0.000010
H          -4.644568    1.213939   -0.000010
H           0.000000    2.150679    0.861660
H           4.616298   -1.275849   -0.000010
H           4.644568    1.213939   -0.000030
H           2.490989    2.447849   -0.000020
H           0.000000    2.150729   -0.861580
