                   25
 energy=  -539.66372689577724     
C           3.688988   -0.715250   -0.000010
C           2.466479   -1.408959    0.000000
C           1.239069   -0.731810    0.000010
C           1.264439    0.677450    0.000010
C           2.496369    1.361859    0.000000
C           3.707148    0.672890   -0.000010
C           0.000000   -1.430269    0.000010
C           0.000000    1.456189    0.000020
C          -1.264439    0.677450    0.000000
C          -1.239069   -0.731810    0.000010
C          -2.466479   -1.408959    0.000000
H          -2.469789   -2.494389    0.000010
C          -3.688988   -0.715250   -0.000010
C          -3.707148    0.672890   -0.000020
C          -2.496369    1.361859   -0.000010
H           0.000000   -2.514059    0.000020
H           4.616298   -1.275849   -0.000020
H           2.469789   -2.494389   -0.000010
H           2.490989    2.447849    0.000010
H           4.644568    1.213939   -0.000010
H           0.000000    2.150679    0.861660
H          -4.616298   -1.275849   -0.000010
H          -4.644568    1.213939   -0.000030
H          -2.490989    2.447849   -0.000020
H           0.000000    2.150729   -0.861580
                   25
 energy=  -539.43139200962889     
C           3.300674   -0.715249   -0.000010
C           2.206849   -1.408960   -0.000000
C           1.064650   -0.737459    0.000017
C           1.131340    0.677449    0.000010
C           2.233593    1.361860   -0.000000
C           3.361397    0.671312   -0.000017
C          -0.043597   -1.437427    0.000013
C          -0.033164    1.479999    0.000025
C          -1.175348    0.677449   -0.000003
C          -1.175792   -0.692299   -0.000038
C          -2.275840   -1.375136   -0.000204
H          -2.209808   -2.494386    0.000010
C          -3.410198   -0.693143   -0.000037
C          -3.402540    0.655149   -0.000067
C          -2.260000    1.343685   -0.000024
H           0.026251   -2.518031    0.000022
H           4.157306   -1.255435   -0.000025
H           2.242016   -2.464802   -0.000043
H           2.228775    2.447849    0.000010
H           4.183329    1.195992   -0.000007
H          -0.000001    2.150680    0.861660
H          -4.112821   -1.266386    0.000153
H          -4.221869    1.209901    0.000005
H          -2.240800    2.447847   -0.000021
H          -0.000001    2.150730   -0.861580
                   25
 energy=  -538.62550723792492     
C           2.912360   -0.715248   -0.000010
C           1.947219   -1.408961   -0.000000
C           0.890230   -0.743107    0.000024
C           0.998240    0.677448    0.000010
C           1.970818    1.361861    0.000000
C           3.015646    0.669733   -0.000024
C          -0.087195   -1.444585    0.000017
C          -0.066327    1.503811    0.000030
C          -1.086257    0.677447   -0.000007
C          -1.112515   -0.652788   -0.000085
C          -2.085201   -1.341313   -0.000409
H          -1.949827   -2.494384    0.000010
C          -3.131406   -0.671034   -0.000063
C          -3.097932    0.637408   -0.000113
C          -2.023631    1.325513   -0.000037
H           0.052502   -2.522003    0.000024
H           3.698314   -1.235022   -0.000030
H           2.014242   -2.435215   -0.000075
H           1.966561    2.447849    0.000010
H           3.722095    1.178051   -0.000003
H          -0.000001    2.150680    0.861661
H          -3.609354   -1.256951    0.000316
H          -3.799170    1.205867    0.000040
H          -1.990610    2.447846   -0.000023
H          -0.000001    2.150730   -0.861581
                   25
 energy=  -536.98893758679674     
C           2.524047   -0.715245   -0.000010
C           1.687588   -1.408963   -0.000000
C           0.715811   -0.748755    0.000030
C           0.865138    0.677446    0.000010
C           1.708043    1.361864    0.000000
C           2.669894    0.668153   -0.000031
C          -0.130793   -1.451743    0.000020
C          -0.099491    1.527622    0.000035
C          -0.997163    0.677444   -0.000010
C          -1.049237   -0.613276   -0.000133
C          -1.894562   -1.307491   -0.000613
H          -1.689844   -2.494383    0.000010
C          -2.852616   -0.648921   -0.000090
C          -2.793324    0.619667   -0.000160
C          -1.787264    1.307341   -0.000051
H           0.078752   -2.525975    0.000026
H           3.239321   -1.214611   -0.000034
H           1.786466   -2.405628   -0.000108
H           1.704344    2.447848    0.000010
H           3.260866    1.160120    0.000000
H          -0.000001    2.150681    0.861662
H          -3.105870   -1.247549    0.000478
H          -3.376471    1.201839    0.000076
H          -1.740418    2.447845   -0.000024
H          -0.000001    2.150731   -0.861582
                   25
 energy=  -534.20741922342881     
C           2.135734   -0.715241   -0.000010
C           1.427957   -1.408968   -0.000000
C           0.541391   -0.754400    0.000037
C           0.732036    0.677441    0.000010
C           1.445269    1.361869    0.000000
C           2.324141    0.666570   -0.000038
C          -0.174393   -1.458905    0.000023
C          -0.132655    1.551435    0.000040
C          -0.908066    0.677435   -0.000013
C          -0.985957   -0.573761   -0.000181
C          -1.703923   -1.273672   -0.000818
H          -1.429862   -2.494384    0.000010
C          -2.573832   -0.626810   -0.000117
C          -2.488716    0.601924   -0.000207
C          -1.550898    1.289175   -0.000065
H           0.105002   -2.529948    0.000028
H           2.780335   -1.194205   -0.000039
H           1.558692   -2.376041   -0.000140
H           1.442130    2.447848    0.000010
H           2.799651    1.142211    0.000004
H          -0.000002    2.150683    0.861663
H          -2.602352   -1.238126    0.000641
H          -2.953773    1.197819    0.000111
H          -1.490229    2.447846   -0.000026
H          -0.000002    2.150733   -0.861583
                   25
 energy=  -530.25087326599987     
C           1.747421   -0.715234   -0.000010
C           1.168325   -1.408975    0.000000
C           0.366971   -0.760042    0.000044
C           0.598931    0.677435    0.000010
C           1.182496    1.361876    0.000000
C           1.978387    0.664984   -0.000045
C          -0.217993   -1.466069    0.000027
C          -0.165818    1.575247    0.000045
C          -0.818966    0.677421   -0.000017
C          -0.922677   -0.534246   -0.000229
C          -1.513278   -1.239854   -0.001022
H          -1.169866   -2.494391    0.000010
C          -2.295047   -0.604705   -0.000144
C          -2.184108    0.584182   -0.000253
C          -1.314537    1.271014   -0.000078
H           0.131252   -2.533927    0.000030
H           2.321337   -1.173803   -0.000044
H           1.330911   -2.346453   -0.000173
H           1.179906    2.447849    0.000010
H           2.338428    1.124337    0.000007
H          -0.000003    2.150686    0.861666
H          -2.200374   -1.233458    0.001621
H          -2.531057    1.193806    0.000146
H          -1.240030    2.447857   -0.000027
H          -0.000003    2.150736   -0.861586
                   25
 energy=  -523.65553488647117     
C           1.359104   -0.715221   -0.000010
C           0.908695   -1.408989    0.000000
C           0.192555   -0.765683    0.000051
C           0.465831    0.677427    0.000010
C           0.919722    1.361888    0.000000
C           1.632635    0.663392   -0.000052
C          -0.261594   -1.473235    0.000030
C          -0.198976    1.599063    0.000050
C          -0.729868    0.677397   -0.000020
C          -0.859399   -0.494727   -0.000276
C          -1.322617   -1.206036   -0.001227
H          -0.909857   -2.494400    0.000010
C          -2.016263   -0.582601   -0.000170
C          -1.879502    0.566438   -0.000300
C          -1.078182    1.252860   -0.000092
H           0.157503   -2.537912    0.000032
H           1.862345   -1.153413   -0.000049
H           1.103132   -2.316866   -0.000205
H           0.917685    2.447850    0.000010
H           1.877199    1.106525    0.000011
H          -0.000003    2.150691    0.861673
H          -1.798671   -1.228842    0.002606
H          -2.108330    1.189795    0.000181
H          -0.989830    2.447856   -0.000028
H          -0.000003    2.150741   -0.861593
                   25
 energy=  -514.36502113327731     
C           0.970790   -0.715206   -0.000010
C           0.649067   -1.409002   -0.000000
C           0.018135   -0.771326    0.000058
C           0.332728    0.677417    0.000010
C           0.656950    1.361897   -0.000000
C           1.286894    0.661805   -0.000058
C          -0.305189   -1.480407    0.000034
C          -0.232126    1.622899    0.000055
C          -0.640770    0.677363   -0.000023
C          -0.796124   -0.455205   -0.000324
C          -1.131990   -1.172208   -0.001432
H          -0.649826   -2.494414    0.000010
C          -1.737479   -0.560497   -0.000197
C          -1.574899    0.548696   -0.000347
C          -0.841836    1.234700   -0.000106
H           0.183760   -2.541907    0.000034
H           1.403334   -1.133023   -0.000053
H           0.875335   -2.287284   -0.000238
H           0.655423    2.447864    0.000010
H           1.424758    1.118101    0.000019
H          -0.000001    2.150693    0.861687
H          -1.564459   -1.371390    0.015174
H          -1.685560    1.185784    0.000217
H          -0.739582    2.447886   -0.000030
H          -0.000001    2.150743   -0.861607
                   25
 energy=  -493.96733804592469     
C           0.582485   -0.715185   -0.000010
C           0.389455   -1.409017    0.000000
C          -0.156284   -0.776985    0.000065
C           0.199625    0.677403    0.000010
C           0.394189    1.361899   -0.000001
C           0.941168    0.660223   -0.000065
C          -0.348757   -1.487589    0.000034
C          -0.265286    1.646793    0.000061
C          -0.551695    0.677322   -0.000026
C          -0.732851   -0.415656   -0.000372
C          -0.941415   -1.138364   -0.001639
H          -0.389751   -2.494422    0.000009
C          -1.458713   -0.538394   -0.000224
C          -1.270313    0.530951   -0.000394
C          -0.605467    1.216498   -0.000120
H           0.210030   -2.545907    0.000036
H           0.944246   -1.112621   -0.000060
H           0.647491   -2.257661   -0.000271
H           0.393081    2.447892    0.000007
H           0.961006    1.136399    0.000033
H           0.000001    2.150700    0.861706
H          -0.810174   -1.593708    0.048070
H          -1.262744    1.181746    0.000254
H          -0.489285    2.447895   -0.000029
H           0.000006    2.150753   -0.861624
                   25
 energy=  -440.87107379361970     
C           0.194270   -0.715141   -0.000010
C           0.129999   -1.409110   -0.000000
C          -0.330682   -0.782656    0.000072
C           0.066557    0.677372    0.000010
C           0.131578    1.361910   -0.000000
C           0.595505    0.658578   -0.000072
C          -0.392442   -1.494898    0.000040
C          -0.298544    1.670749    0.000066
C          -0.462634    0.677345   -0.000074
C          -0.669539   -0.376057   -0.000420
C          -0.750932   -1.104616   -0.001848
H          -0.129897   -2.494411    0.000010
C          -1.180024   -0.516309   -0.000250
C          -0.965781    0.513165   -0.000440
C          -0.369099    1.198233   -0.000133
H           0.236253   -2.550309    0.000038
H           0.485647   -1.092080   -0.000059
H           0.419708   -2.227889   -0.000303
H           0.131011    2.447913    0.000011
H           0.492795    1.052820    0.000026
H           0.000001    2.150692    0.861708
H          -0.084779   -1.189824    0.001464
H          -0.840614    1.177766    0.000495
H          -0.239003    2.447926   -0.000032
H           0.000000    2.150742   -0.861627
                   25
 energy=  -436.75503643633044     
C          -0.194046   -0.715223   -0.000008
C          -0.129705   -1.408967    0.000006
C          -0.561579   -1.096102    0.002855
C          -0.066552    0.677504    0.000134
C          -0.131474    1.361899    0.000006
C          -0.012843    0.150879   -0.002280
C          -0.287296   -1.914301    0.000245
C          -0.241473    1.879578    0.000109
C          -0.066568    0.677452   -0.529332
C          -0.491529   -0.277436   -0.000536
C          -0.819258   -1.548990   -0.089863
H           0.130497   -2.494481    0.000011
C          -0.861133   -0.656294   -0.002592
C          -0.502064    0.353226   -0.000745
C           0.305392    1.054144   -0.001406
H           0.145656   -2.864391    0.000195
H           0.160390   -1.032135    0.004333
H           0.139869   -2.124348   -0.000458
H          -0.131718    2.448062    0.000015
H          -0.428327    0.988503    0.004528
H           0.000005    2.150695    0.861708
H           0.459505   -1.253469    0.000482
H          -0.640347    1.211143    0.208142
H           0.239811    2.447912   -0.000078
H           0.000002    2.150752   -0.861640
                   25
 energy=  -437.89078057369517     
C          -0.582640   -0.715218   -0.000009
C          -0.389585   -1.409036    0.000000
C          -0.112224   -0.957881    0.000504
C          -0.199693    0.677507    0.000010
C          -0.394264    1.361850    0.000001
C          -0.713918    0.552296   -0.000539
C          -0.008498   -1.776465    0.000174
C          -0.127051    1.818847    0.000097
C           0.329682    0.677440   -0.000274
C          -0.191063   -0.359086   -0.000442
C           0.268533   -1.325439   -0.006263
H           0.389784   -2.494433    0.000009
C           0.299209   -0.558764   -0.000768
C           0.068240    0.217136   -0.001132
C           0.204135    1.231058   -0.000110
H           0.029907   -2.581569    0.000053
H          -0.785220   -1.145235   -0.000265
H          -0.166736   -2.267040   -0.000264
H          -0.392980    2.447954    0.000011
H          -0.646221    0.958204    0.000342
H           0.000012    2.150696    0.861719
H           0.854990   -1.207692    0.001168
H           0.649542    1.066577    0.003477
H           0.306690    2.447912   -0.000028
H           0.000011    2.150745   -0.861638
                   25
 energy=  -486.30344868923481     
C          -0.970825   -0.715187   -0.000010
C          -0.649141   -1.409032    0.000000
C          -0.336387   -0.891020    0.000348
C          -0.332730    0.677425    0.000010
C          -0.656976    1.361877   -0.000000
C          -0.994556    0.590156   -0.000373
C          -0.071041   -1.671754    0.000124
C          -0.134427    1.733646    0.000079
C           0.353305    0.677472   -0.000143
C          -0.032412   -0.424061   -0.000362
C           0.464993   -1.302530   -0.004473
H           0.649721   -2.494422    0.000010
C           0.617669   -0.577776   -0.000555
C           0.568566    0.193928   -0.001137
C           0.490603    1.247443   -0.000096
H           0.059221   -2.564674    0.000046
H          -1.212402   -1.158376   -0.000198
H          -0.452753   -2.298521   -0.000225
H          -0.655263    2.447890    0.000010
H          -1.131512    1.046489    0.000267
H           0.000010    2.150694    0.861704
H           1.325021   -1.216163    0.001016
H           1.067760    1.109386    0.002154
H           0.579495    2.447873   -0.000029
H           0.000010    2.150744   -0.861624
                   25
 energy=  -511.63021938714547     
C          -1.359114   -0.715208   -0.000010
C          -0.908733   -1.409022    0.000000
C          -0.560634   -0.824076    0.000194
C          -0.465825    0.677428    0.000010
C          -0.919727    1.361897   -0.000000
C          -1.275216    0.627961   -0.000207
C          -0.133604   -1.567106    0.000074
C          -0.141832    1.648479    0.000061
C           0.377048    0.677440   -0.000079
C           0.126166   -0.489060   -0.000283
C           0.661413   -1.279674   -0.002696
H           0.909792   -2.494408    0.000010
C           0.936116   -0.596748   -0.000343
C           0.969686    0.393494   -0.000684
C           0.777142    1.263765   -0.000084
H           0.088677   -2.548313    0.000037
H          -1.638977   -1.171272   -0.000119
H          -0.738839   -2.329884   -0.000191
H          -0.917610    2.447873    0.000010
H          -1.603596    1.089858    0.000136
H           0.000001    2.150692    0.861680
H           1.795345   -1.224686    0.000869
H           1.484952    1.152576    0.001141
H           0.852667    2.447869   -0.000027
H           0.000001    2.150742   -0.861600
                   25
 energy=  -522.74231561701379     
C          -1.747428   -0.715210   -0.000010
C          -1.168361   -1.409020    0.000000
C          -0.784868   -0.757192    0.000041
C          -0.598925    0.677429    0.000010
C          -1.182497    1.361897   -0.000000
C          -1.555891    0.665752   -0.000041
C          -0.196170   -1.462508    0.000025
C          -0.149223    1.563359    0.000043
C           0.400842    0.677439   -0.000015
C           0.284734   -0.553990   -0.000205
C           0.857875   -1.256789   -0.000920
H           1.169780   -2.494407    0.000010
C           1.254582   -0.615746   -0.000130
C           1.370779    0.593019   -0.000230
C           1.063675    1.280122   -0.000071
H           0.118137   -2.531982    0.000029
H          -2.065456   -1.184177   -0.000041
H          -1.024834   -2.361268   -0.000157
H          -1.179830    2.447872    0.000010
H          -2.075563    1.133288    0.000006
H           0.000001    2.150692    0.861679
H           2.265483   -1.233213    0.000723
H           1.902070    1.195757    0.000129
H           1.125709    2.447868   -0.000026
H           0.000001    2.150741   -0.861599
                   25
 energy=  -530.92104282576076     
C          -2.135729   -0.715234   -0.000010
C          -1.427967   -1.408983   -0.000000
C          -0.875714   -0.752126    0.000035
C          -0.732038    0.677437    0.000010
C          -1.445259    1.361882    0.000000
C          -1.986140    0.667193   -0.000035
C          -0.156946   -1.456046    0.000022
C          -0.119389    1.541915    0.000038
C           0.573604    0.677442   -0.000012
C           0.475602   -0.589563   -0.000162
C           1.179587   -1.287213   -0.000736
H           1.429843   -2.494390    0.000010
C           1.741454   -0.635655   -0.000106
C           1.838030    0.609005   -0.000188
C           1.350196    1.296455   -0.000059
H           0.094506   -2.528366    0.000027
H          -2.575667   -1.202437   -0.000037
H          -1.313896   -2.387875   -0.000127
H          -1.442122    2.447850    0.000010
H          -2.589378    1.149342    0.000003
H           0.000000    2.150687    0.861665
H           2.735766   -1.241735    0.000576
H           2.450607    1.199399    0.000097
H           1.398832    2.447847   -0.000025
H           0.000000    2.150737   -0.861585
                   25
 energy=  -535.50977417758384     
C          -2.524044   -0.715243   -0.000010
C          -1.687595   -1.408969   -0.000000
C          -0.966555   -0.747055    0.000028
C          -0.865140    0.677444    0.000010
C          -1.708038    1.361869   -0.000000
C          -2.416391    0.668622   -0.000029
C          -0.117711   -1.449597    0.000019
C          -0.089541    1.520481    0.000034
C           0.746315    0.677446   -0.000009
C           0.666471   -0.625127   -0.000119
C           1.501312   -1.317643   -0.000552
H           1.689831   -2.494383    0.000010
C           2.228335   -0.655559   -0.000082
C           2.305307    0.624983   -0.000146
C           1.636740    1.312799   -0.000047
H           0.070878   -2.524783    0.000025
H          -3.085817   -1.220762   -0.000033
H          -1.602871   -2.414504   -0.000098
H          -1.704341    2.447849    0.000010
H          -3.103177    1.165484   -0.000001
H          -0.000001    2.150683    0.861662
H           3.205904   -1.250261    0.000430
H           2.999103    1.203031    0.000065
H           1.671874    2.447846   -0.000024
H          -0.000001    2.150733   -0.861582
                   25
 energy=  -538.17179687906537     
C          -2.912359   -0.715247   -0.000010
C          -1.947222   -1.408963   -0.000000
C          -1.057395   -0.741975    0.000022
C          -0.998241    0.677447    0.000010
C          -1.970815    1.361863    0.000000
C          -2.846642    0.670047   -0.000022
C          -0.078474   -1.443154    0.000016
C          -0.059695    1.499050    0.000029
C           0.919024    0.677448   -0.000006
C           0.857338   -0.660689   -0.000076
C           1.823036   -1.348080   -0.000368
H           1.949821   -2.494384    0.000010
C           2.715218   -0.675458   -0.000058
C           2.772586    0.640954   -0.000104
C           1.923284    1.329149   -0.000035
H           0.047252   -2.521208    0.000024
H          -3.595975   -1.239115   -0.000029
H          -1.891847   -2.441132   -0.000069
H          -1.966560    2.447848    0.000010
H          -3.616977    1.181634   -0.000004
H          -0.000001    2.150681    0.861661
H           3.676041   -1.258791    0.000283
H           3.547597    1.206667    0.000033
H           1.944916    2.447846   -0.000022
H          -0.000001    2.150731   -0.861581
                   25
 energy=  -539.33988797626319     
C          -3.300674   -0.715249   -0.000010
C          -2.206850   -1.408960   -0.000000
C          -1.148232   -0.736893    0.000016
C          -1.131340    0.677449    0.000010
C          -2.233593    1.361860   -0.000000
C          -3.276895    0.671469   -0.000016
C          -0.039237   -1.436711    0.000013
C          -0.029847    1.477619    0.000025
C           1.091732    0.677449   -0.000003
C           1.048204   -0.696250   -0.000033
C           2.144758   -1.378519   -0.000184
H           2.209806   -2.494386    0.000010
C           3.202103   -0.695354   -0.000034
C           3.239867    0.656923   -0.000062
C           2.209827    1.345503   -0.000022
H           0.023626   -2.517634    0.000022
H          -4.106135   -1.257479   -0.000024
H          -2.180819   -2.467761   -0.000039
H          -2.228775    2.447849    0.000010
H          -4.130773    1.197785   -0.000007
H          -0.000000    2.150680    0.861660
H           4.146171   -1.267320    0.000137
H           4.096084    1.210302    0.000002
H           2.217954    2.447848   -0.000021
H          -0.000000    2.150730   -0.861580
                   25
 energy=  -539.66372812053828     
C          -3.688988   -0.715250   -0.000010
C          -2.466479   -1.408959    0.000000
C          -1.239069   -0.731810    0.000010
C          -1.264439    0.677450    0.000010
C          -2.496369    1.361859    0.000000
C          -3.707148    0.672890   -0.000010
C           0.000000   -1.430269    0.000010
C           0.000000    1.456189    0.000020
C           1.264439    0.677450    0.000000
C           1.239069   -0.731810    0.000010
C           2.466479   -1.408959    0.000000
H           2.469789   -2.494389    0.000010
C           3.688988   -0.715250   -0.000010
C           3.707148    0.672890   -0.000020
C           2.496369    1.361859   -0.000010
H           0.000000   -2.514059    0.000020
H          -4.616298   -1.275849   -0.000020
H          -2.469789   -2.494389   -0.000010
H          -2.490989    2.447849    0.000010
H          -4.644568    1.213939   -0.000010
H           0.000000    2.150679    0.861660
H           4.616298   -1.275849   -0.000010
H           4.644568    1.213939   -0.000030
H           2.490989    2.447849   -0.000020
H           0.000000    2.150729   -0.861580
