                    25
 energy=  -539.911940497088     
C          -2.371665   -1.554263    0.000000
C          -2.321955   -2.948335    0.000000
C          -1.087382   -3.599774    0.000000
C           0.087290   -2.863153    0.000000
C           2.388426    1.505530    0.000000
C           2.358096    2.934001    0.000000
C           1.150897    3.611938    0.000000
C          -0.021373    2.861663    0.000000
C          -1.288052    0.695624    0.000000
C           1.252104   -0.697618    0.000000
C          -1.202713   -0.797777    0.000000
C           0.059657   -1.449215    0.000000
C           0.000000    1.428197    0.000000
C           1.221281    0.742065    0.000000
H          -3.333031   -1.051208    0.000000
H          -3.240374   -3.521333    0.000000
H          -1.044768   -4.681687    0.000000
H           1.046845   -3.367872    0.000000
H           2.209445   -1.203852    0.000000
H           3.352254    1.007234    0.000000
H           3.296621    3.475151    0.000000
H           1.116186    4.692866    0.000000
H          -0.985882    3.359787    0.000000
H          -1.882487    1.038809    0.865138
H          -1.882487    1.038809   -0.865138
                    25
 energy=  -539.502040920604     
C          -2.032856   -1.689153    0.194875
C          -1.990247   -3.057139    0.096225
C          -0.932042   -3.613021   -0.102255
C           0.074820   -2.806832   -0.201609
C           2.047222    1.643155   -0.201609
C           2.021225    3.042357   -0.102255
C           0.986483    3.625942    0.096225
C          -0.018320    2.809781    0.194875
C          -1.104045    0.596249    0.208286
C           1.073232   -0.597958   -0.204743
C          -1.030897   -0.864469    0.096952
C           0.051135   -1.419408   -0.104590
C          -0.000000    1.404829    0.096952
C           1.046813    0.813279   -0.104590
H          -2.856884   -1.257466    0.349924
H          -2.777464   -3.682163    0.173465
H          -0.895515   -4.672853   -0.182180
H           0.897296   -3.240117   -0.356557
H           1.893810   -1.031874   -0.359463
H           2.873361    1.216712   -0.356557
H           2.825676    3.638680   -0.182180
H           0.956731    4.686334    0.173465
H          -0.845042    3.236249    0.349924
H          -1.490165    0.890407    1.048405
H          -1.736956    0.890407   -0.434688
                    25
 energy=  -538.294298917460     
C          -1.694046   -1.824042    0.389751
C          -1.658539   -3.165942    0.192449
C          -0.776702   -3.626267   -0.204509
C           0.062350   -2.750510   -0.403217
C           1.706018    1.780780   -0.403217
C           1.684354    3.150714   -0.204509
C           0.822069    3.639945    0.192449
C          -0.015266    2.757899    0.389751
C          -0.920037    0.496874    0.416573
C           0.894360   -0.498298   -0.409486
C          -0.859081   -0.931161    0.193903
C           0.042612   -1.389600   -0.209180
C          -0.000000    1.381461    0.193903
C           0.872344    0.884493   -0.209180
H          -2.380737   -1.463725    0.699847
H          -2.314553   -3.842993    0.346931
H          -0.746262   -4.664020   -0.364361
H           0.747747   -3.112362   -0.713115
H           1.578176   -0.859895   -0.718927
H           2.394468    1.426191   -0.713115
H           2.354730    3.802209   -0.364361
H           0.797276    4.679802    0.346931
H          -0.704202    3.112711    0.699847
H          -1.097842    0.742006    1.231673
H          -1.591426    0.742006   -0.004239
                    25
 energy=  -537.031744394582     
C          -1.355237   -1.958932    0.584626
C          -1.326832   -3.274746    0.288674
C          -0.621361   -3.639513   -0.306764
C           0.049880   -2.694189   -0.604826
C           1.364815    1.918405   -0.604826
C           1.347484    3.259071   -0.306764
C           0.657656    3.653949    0.288674
C          -0.012213    2.706017    0.584626
C          -0.736030    0.397499    0.624859
C           0.715488   -0.398639   -0.614228
C          -0.687265   -0.997853    0.290855
C           0.034090   -1.359793   -0.313770
C          -0.000000    1.358093    0.290855
C           0.697875    0.955706   -0.313770
H          -1.904590   -1.669983    1.049771
H          -1.851643   -4.003823    0.520396
H          -0.597010   -4.655187   -0.546541
H           0.598198   -2.984607   -1.069672
H           1.262541   -0.687916   -1.078391
H           1.915575    1.635670   -1.069672
H           1.883784    3.965738   -0.546541
H           0.637821    4.673269    0.520396
H          -0.563362    2.989172    1.049771
H          -0.705520    0.593605    1.414941
H          -1.445895    0.593605    0.426211
                    25
 energy=  -537.039596620779     
C          -1.016428   -2.093821    0.779501
C          -0.995124   -3.383550    0.384899
C          -0.466021   -3.652760   -0.409018
C           0.037410   -2.637868   -0.806434
C           1.023611    2.056030   -0.806434
C           1.010613    3.367428   -0.409018
C           0.493242    3.667952    0.384899
C          -0.009160    2.654135    0.779501
C          -0.552022    0.298124    0.833146
C           0.536616   -0.298979   -0.818971
C          -0.515449   -1.064545    0.387807
C           0.025567   -1.329985   -0.418361
C          -0.000000    1.334725    0.387807
C           0.523406    1.026920   -0.418361
H          -1.428443   -1.876242    1.399695
H          -1.388732   -4.164652    0.693861
H          -0.447757   -4.646353   -0.728721
H           0.448649   -2.856852   -1.426230
H           0.946906   -0.515937   -1.437854
H           1.436682    1.845149   -1.426230
H           1.412838    4.129267   -0.728722
H           0.478366    4.666737    0.693861
H          -0.422522    2.865634    1.399695
H          -0.313197    0.445204    1.598208
H          -1.300365    0.445204    0.856660
                    25
 energy=  -538.307459365121     
C          -0.677619   -2.228711    0.974377
C          -0.663416   -3.492354    0.481123
C          -0.310681   -3.666006   -0.511273
C           0.024940   -2.581547   -1.008043
C           0.682407    2.193655   -1.008043
C           0.673742    3.475785   -0.511273
C           0.328828    3.681955    0.481123
C          -0.006107    2.602253    0.974377
C          -0.368015    0.198750    1.041432
C           0.357744   -0.199319   -1.023714
C          -0.343632   -1.131237    0.484758
C           0.017045   -1.300178   -0.522951
C          -0.000000    1.311357    0.484758
C           0.348938    1.098134   -0.522951
H          -0.952295   -2.082500    1.749618
H          -0.925822   -4.325482    0.867326
H          -0.298505   -4.637520   -0.910902
H           0.299099   -2.729096   -1.782786
H           0.631271   -0.343958   -1.797317
H           0.957788    2.054628   -1.782786
H           0.941892    4.292795   -0.910902
H           0.318910    4.660205    0.867326
H          -0.281681    2.742095    1.749618
H           0.079125    0.296803    1.781475
H          -1.154833    0.296803    1.287110
                    25
 energy=  -539.508022197577     
C          -0.338809   -2.363600    1.169252
C          -0.331708   -3.601158    0.577348
C          -0.155340   -3.679252   -0.613527
C           0.012470   -2.525226   -1.209652
C           0.341204    2.331280   -1.209652
C           0.336871    3.584141   -0.613527
C           0.164414    3.695959    0.577348
C          -0.003053    2.550372    1.169252
C          -0.184007    0.099375    1.249719
C           0.178872   -0.099660   -1.228457
C          -0.171816   -1.197929    0.581710
C           0.008522   -1.270370   -0.627541
C          -0.000000    1.287989    0.581710
C           0.174469    1.169348   -0.627541
H          -0.476148   -2.288759    2.099541
H          -0.462911   -4.486311    1.040791
H          -0.149253   -4.628686   -1.093082
H           0.149549   -2.601341   -2.139343
H           0.315635   -0.171979   -2.156780
H           0.478894    2.264107   -2.139343
H           0.470946    4.456324   -1.093082
H           0.159455    4.653673    1.040791
H          -0.140840    2.618556    2.099541
H           0.471447    0.148401    1.964742
H          -1.009301    0.148401    1.717560
                    25
 energy=  -539.910373225377     
C           0.000000   -2.498490    1.364127
C           0.000000   -3.709962    0.673573
C           0.000000   -3.692498   -0.715782
C           0.000000   -2.468905   -1.411260
C           0.000000    2.468905   -1.411260
C           0.000000    3.692498   -0.715782
C           0.000000    3.709962    0.673573
C           0.000000    2.498490    1.364127
C           0.000000    0.000000    1.458005
C           0.000000    0.000000   -1.433199
C           0.000000   -1.264621    0.678662
C           0.000000   -1.240562   -0.732131
C           0.000000    1.264621    0.678662
C           0.000000    1.240562   -0.732131
H           0.000000   -2.495018    2.449464
H           0.000000   -4.647141    1.214256
H           0.000000   -4.619853   -1.275262
H           0.000000   -2.473586   -2.495900
H           0.000000    0.000000   -2.516243
H           0.000000    2.473586   -2.495900
H           0.000000    4.619853   -1.275262
H           0.000000    4.647141    1.214256
H           0.000000    2.495018    2.449464
H           0.863770    0.000000    2.148009
H          -0.863770    0.000000    2.148009
