                    25
 energy=  -539.911940497088     
C          -2.371665   -1.554263    0.000000
C          -2.321955   -2.948335    0.000000
C          -1.087382   -3.599774    0.000000
C           0.087290   -2.863153    0.000000
C           2.388426    1.505530    0.000000
C           2.358096    2.934001    0.000000
C           1.150897    3.611938    0.000000
C          -0.021373    2.861663    0.000000
C          -1.288052    0.695624    0.000000
C           1.252104   -0.697618    0.000000
C          -1.202713   -0.797777    0.000000
C           0.059657   -1.449215    0.000000
C           0.000000    1.428197    0.000000
C           1.221281    0.742065    0.000000
H          -3.333031   -1.051208    0.000000
H          -3.240374   -3.521333    0.000000
H          -1.044768   -4.681687    0.000000
H           1.046845   -3.367872    0.000000
H           2.209445   -1.203852    0.000000
H           3.352254    1.007234    0.000000
H           3.296621    3.475151    0.000000
H           1.116186    4.692866    0.000000
H          -0.985882    3.359787    0.000000
H          -1.882487    1.038809    0.865138
H          -1.882487    1.038809   -0.865138
                    25
 energy=  -539.502044694834     
C          -2.032856   -1.689153    0.194875
C          -1.990247   -3.057138    0.096225
C          -0.932042   -3.613021   -0.102255
C           0.074820   -2.806831   -0.201609
C           2.047222    1.643155   -0.201609
C           2.021225    3.042357   -0.102255
C           0.986483    3.625942    0.096225
C          -0.018320    2.809781    0.194875
C          -1.104045    0.596249    0.208287
C           1.073232   -0.597958   -0.204743
C          -1.030897   -0.864469    0.096952
C           0.051135   -1.419408   -0.104590
C          -0.000000    1.404829    0.096952
C           1.046813    0.813279   -0.104590
H          -2.856885   -1.257466    0.349925
H          -2.777464   -3.682164    0.173466
H          -0.895514   -4.672854   -0.182181
H           0.897297   -3.240118   -0.356558
H           1.893812   -1.031874   -0.359464
H           2.873362    1.216712   -0.356558
H           2.825676    3.638681   -0.182181
H           0.956731    4.686334    0.173466
H          -0.845043    3.236250    0.349925
H          -1.490165    0.890407    1.048407
H          -1.736957    0.890408   -0.434689
                    25
 energy=  -538.294328446133     
C          -1.694046   -1.824043    0.389751
C          -1.658540   -3.165942    0.192450
C          -0.776701   -3.626267   -0.204509
C           0.062350   -2.750510   -0.403217
C           1.706018    1.780780   -0.403217
C           1.684355    3.150714   -0.204509
C           0.822069    3.639946    0.192450
C          -0.015266    2.757899    0.389751
C          -0.920037    0.496874    0.416573
C           0.894360   -0.498298   -0.409486
C          -0.859082   -0.931160    0.193904
C           0.042613   -1.389601   -0.209181
C          -0.000001    1.381462    0.193904
C           0.872344    0.884492   -0.209181
H          -2.380740   -1.463723    0.699851
H          -2.314554   -3.842994    0.346932
H          -0.746262   -4.664020   -0.364362
H           0.747751   -3.112364   -0.713118
H           1.578179   -0.859896   -0.718930
H           2.394471    1.426190   -0.713118
H           2.354730    3.802211   -0.364362
H           0.797275    4.679802    0.346931
H          -0.704206    3.112712    0.699851
H          -1.097842    0.742006    1.231678
H          -1.591430    0.742007   -0.004240
                    25
 energy=  -537.031824006031     
C          -1.355237   -1.958932    0.584626
C          -1.326832   -3.274746    0.288675
C          -0.621360   -3.639514   -0.306764
C           0.049880   -2.694189   -0.604826
C           1.364815    1.918406   -0.604826
C           1.347484    3.259070   -0.306765
C           0.657655    3.653949    0.288675
C          -0.012213    2.706017    0.584626
C          -0.736030    0.397499    0.624859
C           0.715488   -0.398638   -0.614228
C          -0.687266   -0.997852    0.290856
C           0.034091   -1.359793   -0.313771
C          -0.000001    1.358094    0.290856
C           0.697876    0.955706   -0.313771
H          -1.904596   -1.669981    1.049777
H          -1.851644   -4.003824    0.520398
H          -0.597009   -4.655187   -0.546542
H           0.598204   -2.984609   -1.069678
H           1.262547   -0.687918   -1.078397
H           1.915580    1.635668   -1.069678
H           1.883786    3.965740   -0.546543
H           0.637820    4.673270    0.520396
H          -0.563368    2.989174    1.049777
H          -0.705519    0.593606    1.414947
H          -1.445903    0.593607    0.426210
                    25
 energy=  -537.039676353829     
C          -1.016428   -2.093822    0.779501
C          -0.995124   -3.383550    0.384900
C          -0.466020   -3.652760   -0.409019
C           0.037410   -2.637868   -0.806434
C           1.023611    2.056030   -0.806434
C           1.010613    3.367427   -0.409019
C           0.493241    3.667953    0.384900
C          -0.009160    2.654135    0.779501
C          -0.552022    0.298124    0.833146
C           0.536616   -0.298979   -0.818971
C          -0.515449   -1.064545    0.387808
C           0.025568   -1.329986   -0.418361
C          -0.000001    1.334726    0.387808
C           0.523407    1.026920   -0.418361
H          -1.428448   -1.876240    1.399701
H          -1.388735   -4.164653    0.693863
H          -0.447757   -4.646354   -0.728722
H           0.448653   -2.856854   -1.426236
H           0.946911   -0.515939   -1.437860
H           1.436687    1.845147   -1.426236
H           1.412841    4.129268   -0.728723
H           0.478366    4.666738    0.693861
H          -0.422526    2.865635    1.399701
H          -0.313197    0.445205    1.598214
H          -1.300373    0.445206    0.856660
                    25
 energy=  -538.307489320546     
C          -0.677619   -2.228711    0.974377
C          -0.663416   -3.492354    0.481124
C          -0.310681   -3.666006   -0.511273
C           0.024940   -2.581547   -1.008043
C           0.682407    2.193655   -1.008043
C           0.673742    3.475784   -0.511273
C           0.328828    3.681956    0.481124
C          -0.006107    2.602253    0.974377
C          -0.368015    0.198749    1.041432
C           0.357744   -0.199319   -1.023714
C          -0.343633   -1.131237    0.484759
C           0.017045   -1.300178   -0.522951
C          -0.000000    1.311358    0.484759
C           0.348938    1.098134   -0.522951
H          -0.952299   -2.082499    1.749622
H          -0.925824   -4.325483    0.867327
H          -0.298505   -4.637520   -0.910902
H           0.299101   -2.729097   -1.782790
H           0.631273   -0.343959   -1.797321
H           0.957791    2.054627   -1.782790
H           0.941895    4.292796   -0.910903
H           0.318911    4.660205    0.867326
H          -0.281683    2.742096    1.749622
H           0.079126    0.296803    1.781478
H          -1.154839    0.296804    1.287111
                    25
 energy=  -539.508026101558     
C          -0.338809   -2.363600    1.169252
C          -0.331708   -3.601158    0.577348
C          -0.155340   -3.679252   -0.613527
C           0.012470   -2.525226   -1.209652
C           0.341204    2.331280   -1.209652
C           0.336871    3.584141   -0.613527
C           0.164414    3.695959    0.577348
C          -0.003053    2.550372    1.169252
C          -0.184007    0.099375    1.249719
C           0.178872   -0.099660   -1.228457
C          -0.171816   -1.197929    0.581710
C           0.008522   -1.270370   -0.627541
C          -0.000000    1.287989    0.581710
C           0.174469    1.169348   -0.627541
H          -0.476149   -2.288759    2.099542
H          -0.462912   -4.486312    1.040792
H          -0.149253   -4.628686   -1.093082
H           0.149550   -2.601341   -2.139344
H           0.315636   -0.171979   -2.156781
H           0.478895    2.264107   -2.139345
H           0.470947    4.456325   -1.093083
H           0.159456    4.653673    1.040791
H          -0.140841    2.618557    2.099542
H           0.471448    0.148401    1.964743
H          -1.009303    0.148402    1.717560
                    25
 energy=  -539.910373225377     
C           0.000000   -2.498490    1.364127
C           0.000000   -3.709962    0.673573
C           0.000000   -3.692498   -0.715782
C           0.000000   -2.468905   -1.411260
C           0.000000    2.468905   -1.411260
C           0.000000    3.692498   -0.715782
C           0.000000    3.709962    0.673573
C           0.000000    2.498490    1.364127
C           0.000000    0.000000    1.458005
C           0.000000    0.000000   -1.433199
C           0.000000   -1.264621    0.678662
C           0.000000   -1.240562   -0.732131
C           0.000000    1.264621    0.678662
C           0.000000    1.240562   -0.732131
H           0.000000   -2.495018    2.449464
H           0.000000   -4.647141    1.214256
H           0.000000   -4.619853   -1.275262
H           0.000000   -2.473586   -2.495900
H           0.000000    0.000000   -2.516243
H           0.000000    2.473586   -2.495900
H           0.000000    4.619853   -1.275262
H           0.000000    4.647141    1.214256
H           0.000000    2.495018    2.449464
H           0.863770    0.000000    2.148009
H          -0.863770    0.000000    2.148009
