                    25
 energy=  -539.942982493251     
C          -2.473327    1.383560    0.000000
C          -3.686888    0.693453    0.000000
C          -3.702976   -0.708416    0.000000
C          -2.521841   -1.408948    0.000000
C           2.437446   -1.410162    0.000000
C           3.704911   -0.734802    0.000000
C           3.753503    0.643584    0.000000
C           2.551221    1.336534    0.000000
C           0.028793    1.473726    0.000000
C          -0.071279   -1.430625    0.000000
C          -1.268568    0.706615    0.000000
C          -1.265655   -0.729842    0.000000
C           1.273269    0.653425    0.000000
C           1.225901   -0.724617    0.000000
H          -2.480881    2.465810    0.000000
H          -4.616240    1.244130    0.000000
H          -4.646128   -1.235966    0.000000
H          -2.525617   -2.490129    0.000000
H          -0.071469   -2.510091    0.000000
H           2.439631   -2.492647    0.000000
H           4.609249   -1.325920    0.000000
H           4.695052    1.170884    0.000000
H           2.549678    2.418893    0.000000
H           0.068962    2.151659    0.864319
H           0.068962    2.151659   -0.864319
                    25
 energy=  -539.942926194787     
C          -2.476993    1.381387    0.000000
C          -3.690973    0.691059   -0.000000
C          -3.703183   -0.710500   -0.000000
C          -2.518217   -1.409617    0.000000
C           2.441829   -1.410191    0.000000
C           3.705930   -0.732431   -0.000000
C           3.750560    0.647098    0.000000
C           2.547443    1.340042    0.000000
C           0.025498    1.472702   -0.000001
C          -0.064762   -1.431156    0.000001
C          -1.269609    0.704226   -0.000000
C          -1.263111   -0.730848   -0.000000
C           1.272433    0.655514   -0.000000
C           1.228942   -0.724708   -0.000000
H          -2.484663    2.464072   -0.000000
H          -4.621602    1.240841    0.000000
H          -4.645027   -1.240969    0.000000
H          -2.521475   -2.490872   -0.000000
H          -0.063323   -2.510734   -0.000000
H           2.445332   -2.493026   -0.000000
H           4.612577   -1.320528    0.000000
H           4.691341    1.176097   -0.000000
H           2.545539    2.422609   -0.000000
H           0.061223    2.151415    0.864264
H           0.061223    2.151416   -0.864263
                    25
 energy=  -539.942824265014     
C          -2.480969    1.379209   -0.000000
C          -3.694972    0.688676   -0.000000
C          -3.703430   -0.712337    0.000000
C          -2.514838   -1.410144    0.000000
C           2.446458   -1.410300    0.000000
C           3.707100   -0.729919    0.000000
C           3.747583    0.650554   -0.000000
C           2.543802    1.343560    0.000000
C           0.022133    1.471719   -0.000002
C          -0.058185   -1.431791    0.000000
C          -1.270982    0.701891    0.000000
C          -1.260866   -0.731633    0.000000
C           1.271943    0.657868    0.000000
C           1.232192   -0.724879   -0.000000
H          -2.488396    2.462251   -0.000000
H          -4.626735    1.237407    0.000000
H          -4.643864   -1.245957    0.000000
H          -2.517307   -2.491726    0.000000
H          -0.055156   -2.511790   -0.000000
H           2.451002   -2.493601   -0.000000
H           4.615850   -1.315079    0.000000
H           4.687469    1.181181    0.000000
H           2.541371    2.426331   -0.000000
H           0.053482    2.151266    0.864296
H           0.053482    2.151269   -0.864296
                    25
 energy=  -539.942629705229     
C          -2.484779    1.376951   -0.000000
C          -3.699011    0.686344   -0.000000
C          -3.703633   -0.714266    0.000000
C          -2.511227   -1.410644    0.000000
C           2.450908   -1.410410    0.000000
C           3.708215   -0.727598    0.000000
C           3.744545    0.654071    0.000000
C           2.539804    1.347066   -0.000000
C           0.018754    1.470625    0.000000
C          -0.051544   -1.432261    0.000000
C          -1.272170    0.699382    0.000000
C          -1.258427   -0.732366   -0.000000
C           1.271238    0.660152   -0.000000
C           1.235304   -0.725003   -0.000000
H          -2.492155    2.460417    0.000000
H          -4.631987    1.234004   -0.000000
H          -4.642773   -1.251011    0.000000
H          -2.513114   -2.492516   -0.000000
H          -0.046922   -2.512612    0.000000
H           2.456720   -2.494109   -0.000000
H           4.619272   -1.309676   -0.000000
H           4.683789    1.186414   -0.000000
H           2.537183    2.430134    0.000000
H           0.045676    2.151037    0.864261
H           0.045677    2.151037   -0.864262
                    25
 energy=  -539.942364972192     
C          -2.488686    1.374748    0.000000
C          -3.703145    0.683986    0.000000
C          -3.703877   -0.716191    0.000000
C          -2.507614   -1.411152   -0.000000
C           2.455454   -1.410506   -0.000000
C           3.709325   -0.725190    0.000000
C           3.741461    0.657574   -0.000000
C           2.535896    1.350592    0.000000
C           0.015400    1.469537    0.000000
C          -0.044730   -1.432804   -0.000000
C          -1.273383    0.696899    0.000000
C          -1.255975   -0.733166    0.000000
C           1.270646    0.662436    0.000000
C           1.238529   -0.725173    0.000000
H          -2.495949    2.458630   -0.000000
H          -4.637317    1.230601    0.000000
H          -4.641688   -1.256093   -0.000000
H          -2.508883   -2.493339   -0.000000
H          -0.038620   -2.513496    0.000000
H           2.462483   -2.494626   -0.000000
H           4.622634   -1.304194   -0.000000
H           4.679955    1.191612    0.000000
H           2.532959    2.433931   -0.000000
H           0.037797    2.150845    0.864260
H           0.037797    2.150845   -0.864260
                    25
 energy=  -539.942020749420     
C          -2.492661    1.372526   -0.000000
C          -3.707372    0.681616   -0.000000
C          -3.704157   -0.718071    0.000000
C          -2.503881   -1.411612   -0.000000
C           2.460105   -1.410653   -0.000000
C           3.710386   -0.722854   -0.000000
C           3.738307    0.661069   -0.000000
C           2.531879    1.354174    0.000000
C           0.012026    1.468371    0.000000
C          -0.037677   -1.433364   -0.000001
C          -1.274561    0.694332    0.000001
C          -1.253545   -0.733907    0.000000
C           1.270074    0.664823    0.000001
C           1.241807   -0.725418    0.000000
H          -2.499778    2.456855   -0.000000
H          -4.642708    1.227183    0.000000
H          -4.640604   -1.261205   -0.000000
H          -2.504608   -2.494143    0.000000
H          -0.030238   -2.514392   -0.000000
H           2.468303   -2.495140   -0.000000
H           4.626005   -1.298671    0.000000
H           4.676093    1.196849    0.000000
H           2.528697    2.437763   -0.000000
H           0.029819    2.150662    0.864258
H           0.029818    2.150661   -0.864258
                    25
 energy=  -539.941582052182     
C          -2.496758    1.370330   -0.000000
C          -3.711724    0.679254    0.000000
C          -3.704567   -0.719774   -0.000000
C          -2.499896   -1.411997    0.000000
C           2.464921   -1.410857    0.000000
C           3.711325   -0.720668   -0.000000
C           3.735044    0.664522    0.000000
C           2.527654    1.357760   -0.000000
C           0.008673    1.467082    0.000000
C          -0.030169   -1.433945    0.000001
C          -1.275582    0.691629   -0.000001
C          -1.251225   -0.734493   -0.000000
C           1.269632    0.667427   -0.000000
C           1.245061   -0.725831   -0.000000
H          -2.503623    2.455113   -0.000000
H          -4.648140    1.223779   -0.000000
H          -4.639566   -1.266319    0.000000
H          -2.500309   -2.494948   -0.000000
H          -0.021812   -2.515295    0.000000
H           2.474149   -2.495661   -0.000000
H           4.629348   -1.293148    0.000000
H           4.672207    1.202080   -0.000000
H           2.524421    2.441590    0.000000
H           0.021760    2.150489    0.864255
H           0.021760    2.150489   -0.864255
                    25
 energy=  -539.941012241744     
C          -2.501135    1.368310   -0.000000
C          -3.716199    0.676959    0.000000
C          -3.705342   -0.720987   -0.000000
C          -2.495405   -1.412242    0.000000
C           2.470115   -1.411154    0.000000
C           3.711871   -0.718957   -0.000000
C           3.731665    0.667805    0.000000
C           2.523066    1.361187   -0.000000
C           0.005444    1.465622    0.000000
C          -0.021765   -1.434540    0.000000
C          -1.276121    0.688592   -0.000000
C          -1.249356   -0.734655   -0.000000
C           1.269604    0.670508   -0.000000
C           1.247990   -0.726676   -0.000000
H          -2.507368    2.453483    0.000000
H          -4.653453    1.220504   -0.000000
H          -4.638624   -1.271267    0.000000
H          -2.496105   -2.495717   -0.000000
H          -0.013586   -2.516180   -0.000000
H           2.479846   -2.496174   -0.000000
H           4.632520   -1.287800    0.000000
H           4.668404    1.207126   -0.000000
H           2.520262    2.445264    0.000000
H           0.013801    2.150355    0.864270
H           0.013801    2.150355   -0.864271
                    25
 energy=  -539.940306425434     
C          -2.505989    1.366698   -0.000000
C          -3.720845    0.674809   -0.000000
C          -3.706869   -0.721425   -0.000000
C          -2.490069   -1.412442    0.000000
C           2.476064   -1.411535    0.000000
C           3.711766   -0.718038    0.000000
C           3.728205    0.670890    0.000000
C           2.517870    1.364234   -0.000000
C           0.002413    1.464138   -0.000000
C          -0.011911   -1.435161    0.000001
C          -1.275679    0.684996    0.000000
C          -1.248253   -0.734085   -0.000000
C           1.270378    0.674407    0.000000
C           1.250140   -0.728204   -0.000000
H          -2.510923    2.452110    0.000000
H          -4.658666    1.217521   -0.000000
H          -4.637938   -1.276004    0.000000
H          -2.492107   -2.496599   -0.000000
H          -0.005752   -2.517119   -0.000000
H           2.485256   -2.496724   -0.000000
H           4.635475   -1.282785   -0.000000
H           4.664762    1.211863   -0.000000
H           2.516319    2.448702    0.000000
H           0.006064    2.150263    0.864340
H           0.006064    2.150263   -0.864340
                    25
 energy=  -539.939698243996     
C          -2.511785    1.366739    0.000000
C          -3.725626    0.673569    0.000000
C          -3.710533   -0.720043    0.000000
C          -2.483385   -1.412878    0.000000
C           2.483385   -1.412878    0.000000
C           3.710533   -0.720043    0.000000
C           3.725626    0.673569    0.000000
C           2.511785    1.366739    0.000000
C           0.000000    1.463529    0.000000
C           0.000000   -1.436233    0.000000
C          -1.272777    0.680177    0.000000
C          -1.249361   -0.731798    0.000000
C           1.272777    0.680177    0.000000
C           1.249361   -0.731798    0.000000
H          -2.513532    2.452446    0.000000
H          -4.663413    1.215989    0.000000
H          -4.638645   -1.279965    0.000000
H          -2.489211   -2.498454    0.000000
H           0.000000   -2.518980    0.000000
H           2.489211   -2.498454    0.000000
H           4.638645   -1.279965    0.000000
H           4.663413    1.215989    0.000000
H           2.513532    2.452446    0.000000
H           0.000000    2.150818    0.865287
H           0.000000    2.150818   -0.865287
