                    25
 energy=  -539.942982493251     
C          -2.473327    1.383560    0.000000
C          -3.686888    0.693453    0.000000
C          -3.702976   -0.708416    0.000000
C          -2.521841   -1.408948    0.000000
C           2.437446   -1.410162    0.000000
C           3.704911   -0.734802    0.000000
C           3.753503    0.643584    0.000000
C           2.551221    1.336534    0.000000
C           0.028793    1.473726    0.000000
C          -0.071279   -1.430625    0.000000
C          -1.268568    0.706615    0.000000
C          -1.265655   -0.729842    0.000000
C           1.273269    0.653425    0.000000
C           1.225901   -0.724617    0.000000
H          -2.480881    2.465810    0.000000
H          -4.616240    1.244130    0.000000
H          -4.646128   -1.235966    0.000000
H          -2.525617   -2.490129    0.000000
H          -0.071469   -2.510091    0.000000
H           2.439631   -2.492647    0.000000
H           4.609249   -1.325920    0.000000
H           4.695052    1.170884    0.000000
H           2.549678    2.418893    0.000000
H           0.068962    2.151659    0.864319
H           0.068962    2.151659   -0.864319
                    25
 energy=  -539.942890160732     
C          -2.477266    1.381507   -0.000000
C          -3.691097    0.691154   -0.000000
C          -3.703461   -0.710128   -0.000000
C          -2.517955   -1.409475    0.000000
C           2.442145   -1.410354    0.000000
C           3.705775   -0.732757   -0.000000
C           3.750465    0.647004    0.000000
C           2.547184    1.340015   -0.000000
C           0.025543    1.472646   -0.000001
C          -0.064129   -1.431203    0.000000
C          -1.269406    0.704012   -0.000000
C          -1.263371   -0.730507   -0.000000
C           1.272759    0.655898    0.000000
C           1.228847   -0.725007   -0.000000
H          -2.484600    2.464187   -0.000000
H          -4.621564    1.240917    0.000000
H          -4.645157   -1.240919    0.000000
H          -2.521501   -2.490947   -0.000000
H          -0.063386   -2.510921   -0.000000
H           2.445261   -2.493186   -0.000000
H           4.612559   -1.320662    0.000000
H           4.691408    1.176000   -0.000000
H           2.545584    2.422623    0.000000
H           0.061227    2.151490    0.864340
H           0.061226    2.151490   -0.864339
                    25
 energy=  -539.942756499686     
C          -2.481426    1.379480   -0.000000
C          -3.695262    0.688835   -0.000000
C          -3.703950   -0.711712    0.000000
C          -2.514209   -1.409933    0.000000
C           2.447021   -1.410573    0.000000
C           3.706690   -0.730604    0.000000
C           3.747353    0.650376   -0.000000
C           2.543323    1.343460    0.000000
C           0.022257    1.471562   -0.000001
C          -0.056890   -1.431868    0.000000
C          -1.270393    0.701447    0.000000
C          -1.261288   -0.731090    0.000000
C           1.272463    0.658573    0.000000
C           1.231890   -0.725539   -0.000000
H          -2.488289    2.462542   -0.000000
H          -4.626784    1.237641    0.000000
H          -4.644153   -1.245867    0.000000
H          -2.517366   -2.491821   -0.000000
H          -0.055294   -2.511945    0.000000
H           2.450866   -2.493804    0.000000
H           4.615811   -1.315365    0.000000
H           4.687661    1.181045    0.000000
H           2.541464    2.426369   -0.000000
H           0.053491    2.151388    0.864429
H           0.053491    2.151390   -0.864428
                    25
 energy=  -539.942515644635     
C          -2.485370    1.377360    0.000000
C          -3.699453    0.686603   -0.000000
C          -3.704447   -0.713357    0.000000
C          -2.510256   -1.410376   -0.000000
C           2.451699   -1.410806    0.000000
C           3.707601   -0.728643    0.000000
C           3.744318    0.653803   -0.000000
C           2.539021    1.346934   -0.000000
C           0.018985    1.470446    0.000000
C          -0.049648   -1.432369    0.000000
C          -1.271272    0.698717    0.000000
C          -1.259039   -0.731552   -0.000000
C           1.272030    0.661100    0.000000
C           1.234823   -0.725892   -0.000000
H          -2.492000    2.460891    0.000000
H          -4.632078    1.234387   -0.000000
H          -4.643218   -1.250854    0.000000
H          -2.513236   -2.492671    0.000000
H          -0.047177   -2.512845   -0.000000
H           2.456506   -2.494386   -0.000000
H           4.619174   -1.310112   -0.000000
H           4.684065    1.186176   -0.000000
H           2.537363    2.430133    0.000000
H           0.045729    2.151207    0.864440
H           0.045730    2.151207   -0.864440
                    25
 energy=  -539.942169740853     
C          -2.489450    1.375310    0.000000
C          -3.703689    0.684330    0.000000
C          -3.704982   -0.714954   -0.000000
C          -2.506321   -1.410822   -0.000000
C           2.456498   -1.411028   -0.000000
C           3.708486   -0.726612   -0.000000
C           3.741208    0.657202   -0.000000
C           2.534864    1.350393    0.000000
C           0.015722    1.469314    0.000000
C          -0.042256   -1.432953   -0.000000
C          -1.272137    0.696026    0.000000
C          -1.256861   -0.732062    0.000000
C           1.271690    0.663717    0.000000
C           1.237797   -0.726357    0.000000
H          -2.495715    2.459260   -0.000000
H          -4.637379    1.231130   -0.000000
H          -4.642273   -1.255841   -0.000000
H          -2.509088   -2.493542    0.000000
H          -0.039040   -2.513787    0.000000
H           2.462151   -2.494983    0.000000
H           4.622485   -1.304823    0.000000
H           4.680378    1.191273    0.000000
H           2.533239    2.433892   -0.000000
H           0.037940    2.151064    0.864489
H           0.037940    2.151064   -0.864489
                    25
 energy=  -539.941735739025     
C          -2.493582    1.373269    0.000000
C          -3.707972    0.682052   -0.000000
C          -3.705558   -0.716499   -0.000000
C          -2.502294   -1.411240   -0.000000
C           2.461387   -1.411273   -0.000000
C           3.709309   -0.724660   -0.000000
C           3.738063    0.660588   -0.000000
C           2.530646    1.353861    0.000000
C           0.012453    1.468136    0.000000
C          -0.034703   -1.433551   -0.000001
C          -1.272942    0.693266    0.000000
C          -1.254756   -0.732513    0.000000
C           1.271400    0.666431    0.000000
C           1.240747   -0.726910    0.000000
H          -2.499435    2.457644   -0.000000
H          -4.642689    1.227874   -0.000000
H          -4.641331   -1.260824   -0.000000
H          -2.504935   -2.494402    0.000000
H          -0.030896   -2.514728   -0.000000
H           2.467802   -2.495566    0.000000
H           4.625783   -1.299527   -0.000000
H           4.676695    1.196378    0.000000
H           2.529110    2.437655   -0.000000
H           0.030126    2.150932    0.864544
H           0.030126    2.150932   -0.864544
                    25
 energy=  -539.941218527462     
C          -2.497796    1.371270   -0.000000
C          -3.712309    0.679783    0.000000
C          -3.706241   -0.717908   -0.000000
C          -2.498093   -1.411628    0.000000
C           2.466393   -1.411539    0.000000
C           3.710027   -0.722834   -0.000000
C           3.734879    0.663944    0.000000
C           2.526293    1.357296   -0.000000
C           0.009206    1.466903   -0.000000
C          -0.026872   -1.434163    0.000000
C          -1.273608    0.690399   -0.000000
C          -1.252788   -0.732838   -0.000000
C           1.271224    0.669303   -0.000000
C           1.243610   -0.727593   -0.000000
H          -2.503142    2.456054   -0.000000
H          -4.647983    1.224637   -0.000000
H          -4.640414   -1.265784    0.000000
H          -2.500793   -2.495264   -0.000000
H          -0.022773   -2.515666   -0.000000
H           2.473437   -2.496145   -0.000000
H           4.629055   -1.294260    0.000000
H           4.673027    1.201457   -0.000000
H           2.524998    2.441397    0.000000
H           0.022310    2.150806    0.864600
H           0.022310    2.150805   -0.864599
                    25
 energy=  -539.940627052458     
C          -2.502204    1.369394   -0.000000
C          -3.716674    0.677538    0.000000
C          -3.707146   -0.719027    0.000000
C          -2.493596   -1.411966   -0.000000
C           2.471654   -1.411834    0.000000
C           3.710491   -0.721299   -0.000000
C           3.731660    0.667220    0.000000
C           2.521742    1.360606   -0.000000
C           0.006016    1.465618    0.000000
C          -0.018555   -1.434778    0.000000
C          -1.273962    0.687304   -0.000000
C          -1.251148   -0.732908   -0.000000
C           1.271326    0.672457    0.000000
C           1.246190   -0.728545   -0.000000
H          -2.506777    2.454518   -0.000000
H          -4.653174    1.221470   -0.000000
H          -4.639541   -1.270636    0.000000
H          -2.496728   -2.496106   -0.000000
H          -0.014801   -2.516583    0.000000
H           2.478962   -2.496702   -0.000000
H           4.632229   -1.289101    0.000000
H           4.669433    1.206429   -0.000000
H           2.520966    2.445048    0.000000
H           0.014588    2.150700    0.864667
H           0.014588    2.150700   -0.864667
                    25
 energy=  -539.940066857512     
C          -2.506722    1.367705   -0.000000
C          -3.721077    0.675401   -0.000000
C          -3.708342   -0.719896   -0.000000
C          -2.488839   -1.412313   -0.000000
C           2.477143   -1.412118    0.000000
C           3.710705   -0.719988    0.000000
C           3.728400    0.670367    0.000000
C           2.517051    1.363687   -0.000000
C           0.002945    1.464377   -0.000000
C          -0.009716   -1.435379    0.000000
C          -1.273913    0.684070    0.000000
C          -1.249791   -0.732716   -0.000000
C           1.271745    0.675816    0.000000
C           1.248462   -0.729669   -0.000000
H          -2.510313    2.453081    0.000000
H          -4.658301    1.218447   -0.000000
H          -4.638774   -1.275369   -0.000000
H          -2.492778   -2.496997   -0.000000
H          -0.007055   -2.517516   -0.000000
H           2.484330   -2.497255   -0.000000
H           4.635264   -1.284097   -0.000000
H           4.665875    1.211211   -0.000000
H           2.517047    2.448540    0.000000
H           0.007015    2.150589    0.864734
H           0.007015    2.150588   -0.864734
                    25
 energy=  -539.939698243996     
C          -2.511785    1.366739    0.000000
C          -3.725626    0.673569    0.000000
C          -3.710533   -0.720043    0.000000
C          -2.483385   -1.412878    0.000000
C           2.483385   -1.412878    0.000000
C           3.710533   -0.720043    0.000000
C           3.725626    0.673569    0.000000
C           2.511785    1.366739    0.000000
C           0.000000    1.463529    0.000000
C           0.000000   -1.436233    0.000000
C          -1.272777    0.680177    0.000000
C          -1.249361   -0.731798    0.000000
C           1.272777    0.680177    0.000000
C           1.249361   -0.731798    0.000000
H          -2.513532    2.452446    0.000000
H          -4.663413    1.215989    0.000000
H          -4.638645   -1.279965    0.000000
H          -2.489211   -2.498454    0.000000
H           0.000000   -2.518980    0.000000
H           2.489211   -2.498454    0.000000
H           4.638645   -1.279965    0.000000
H           4.663413    1.215989    0.000000
H           2.513532    2.452446    0.000000
H           0.000000    2.150818    0.865287
H           0.000000    2.150818   -0.865287
