                    25
 energy=  -539.942978571336     
C          -2.473327    1.383560    0.000000
C          -3.686888    0.693453    0.000000
C          -3.702976   -0.708416    0.000000
C          -2.521841   -1.408948    0.000000
C           2.437446   -1.410162    0.000000
C           3.704911   -0.734802    0.000000
C           3.753503    0.643584    0.000000
C           2.551221    1.336534    0.000000
C           0.028793    1.473726    0.000000
C          -0.071279   -1.430625    0.000000
C          -1.268568    0.706615    0.000000
C          -1.265655   -0.729842    0.000000
C           1.273269    0.653425    0.000000
C           1.225901   -0.724617    0.000000
H          -2.480881    2.465810    0.000000
H          -4.616240    1.244130    0.000000
H          -4.646128   -1.235966    0.000000
H          -2.525617   -2.490129    0.000000
H          -0.071469   -2.510091    0.000000
H           2.439631   -2.492647    0.000000
H           4.609249   -1.325920    0.000000
H           4.695052    1.170884    0.000000
H           2.549678    2.418893    0.000000
H           0.068962    2.151659    0.864319
H           0.068962    2.151659   -0.864319
                    25
 energy=  -539.942942341291     
C          -2.476840    1.381223   -0.000000
C          -3.690768    0.690900    0.000000
C          -3.702944   -0.710748   -0.000000
C          -2.518595   -1.409776   -0.000000
C           2.441652   -1.410008   -0.000000
C           3.706159   -0.732012   -0.000000
C           3.750681    0.647226   -0.000000
C           2.547768    1.340100    0.000000
C           0.025431    1.472770   -0.000000
C          -0.065453   -1.431175   -0.000000
C          -1.269895    0.704508    0.000000
C          -1.263077   -0.731084    0.000000
C           1.272144    0.655362   -0.000000
C           1.228988   -0.724408    0.000000
H          -2.484724    2.463870    0.000000
H          -4.621458    1.240643   -0.000000
H          -4.644812   -1.241011    0.000000
H          -2.521463   -2.490913   -0.000000
H          -0.063295   -2.510713   -0.000000
H           2.445393   -2.492903    0.000000
H           4.612573   -1.320354   -0.000000
H           4.691260    1.176206    0.000000
H           2.545496    2.422524   -0.000000
H           0.061261    2.151347    0.864189
H           0.061261    2.151346   -0.864189
                    25
 energy=  -539.942904086302     
C          -2.480473    1.378894    0.000000
C          -3.694590    0.688432   -0.000000
C          -3.702867   -0.713049   -0.000000
C          -2.515381   -1.410467    0.000000
C           2.445841   -1.409845   -0.000000
C           3.707459   -0.729189    0.000000
C           3.747770    0.650842   -0.000000
C           2.544215    1.343562    0.000000
C           0.022004    1.471789    0.000000
C          -0.059508   -1.431633    0.000000
C          -1.271397    0.702256   -0.000000
C          -1.260570   -0.732148   -0.000000
C           1.271303    0.657279   -0.000000
C           1.232201   -0.724263    0.000000
H          -2.488509    2.461896    0.000000
H          -4.626654    1.237098    0.000000
H          -4.643561   -1.246148    0.000000
H          -2.517257   -2.491727   -0.000000
H          -0.055041   -2.511458    0.000000
H           2.451140   -2.493204   -0.000000
H           4.615950   -1.314727   -0.000000
H           4.687403    1.181471    0.000000
H           2.541245    2.426249   -0.000000
H           0.053514    2.151085    0.864140
H           0.053514    2.151085   -0.864140
                    25
 energy=  -539.942708660261     
C          -2.484297    1.376527   -0.000000
C          -3.698459    0.685926    0.000000
C          -3.702848   -0.715174   -0.000000
C          -2.512226   -1.411075    0.000000
C           2.450201   -1.409816    0.000000
C           3.708815   -0.726443   -0.000000
C           3.744861    0.654473    0.000000
C           2.540625    1.347173    0.000000
C           0.018488    1.470822   -0.000000
C          -0.053521   -1.432193    0.000000
C          -1.273037    0.699995    0.000000
C          -1.258183   -0.733133    0.000000
C           1.270503    0.659367   -0.000000
C           1.235510   -0.724176   -0.000000
H          -2.492326    2.459845    0.000000
H          -4.631681    1.233421   -0.000000
H          -4.642203   -1.251222    0.000000
H          -2.513031   -2.492519   -0.000000
H          -0.046738   -2.512402   -0.000000
H           2.456933   -2.493658    0.000000
H           4.619370   -1.309090    0.000000
H           4.683563    1.186772   -0.000000
H           2.536993    2.430074    0.000000
H           0.045704    2.150873    0.864106
H           0.045703    2.150874   -0.864106
                    25
 energy=  -539.942504853674     
C          -2.487954    1.374128   -0.000000
C          -3.702415    0.683422    0.000000
C          -3.702741   -0.717503   -0.000000
C          -2.508814   -1.411687   -0.000000
C           2.454403   -1.409724    0.000000
C           3.710074   -0.723731   -0.000000
C           3.741880    0.658133    0.000000
C           2.536840    1.350739    0.000000
C           0.014999    1.469756    0.000000
C          -0.047381   -1.432624   -0.000000
C          -1.274516    0.697575    0.000000
C          -1.255542   -0.734198    0.000000
C           1.269602    0.661283   -0.000000
C           1.238763   -0.724085   -0.000000
H          -2.496185    2.457865   -0.000000
H          -4.637023    1.229851    0.000000
H          -4.640940   -1.256416   -0.000000
H          -2.508738   -2.493233    0.000000
H          -0.038306   -2.513054    0.000000
H           2.462799   -2.493964   -0.000000
H           4.622837   -1.303413    0.000000
H           4.679714    1.192157   -0.000000
H           2.532671    2.433945   -0.000000
H           0.037780    2.150598    0.864032
H           0.037779    2.150598   -0.864032
                    25
 energy=  -539.942215245120     
C          -2.491757    1.371747   -0.000000
C          -3.706516    0.680914    0.000000
C          -3.702716   -0.719783   -0.000000
C          -2.505373   -1.412291    0.000000
C           2.458812   -1.409670   -0.000000
C           3.711368   -0.720937   -0.000000
C           3.738772    0.661784    0.000000
C           2.533050    1.354373   -0.000000
C           0.011502    1.468652   -0.000000
C          -0.040956   -1.433136    0.000000
C          -1.276012    0.695183   -0.000000
C          -1.252873   -0.735255   -0.000000
C           1.268767    0.663322    0.000000
C           1.242210   -0.723992    0.000000
H          -2.500117    2.455901   -0.000000
H          -4.642456    1.226233    0.000000
H          -4.639676   -1.261676   -0.000000
H          -2.504366   -2.494002    0.000000
H          -0.029725   -2.513855    0.000000
H           2.468771   -2.494339   -0.000000
H           4.626280   -1.297617    0.000000
H           4.675682    1.197549   -0.000000
H           2.528275    2.437819   -0.000000
H           0.029687    2.150344    0.863967
H           0.029687    2.150344   -0.863967
                    25
 energy=  -539.941848022771     
C          -2.495779    1.369330   -0.000000
C          -3.710839    0.678385    0.000000
C          -3.702839   -0.721859    0.000000
C          -2.501622   -1.412759   -0.000000
C           2.463494   -1.409733    0.000000
C           3.712559   -0.718285   -0.000000
C           3.735455    0.665434    0.000000
C           2.528947    1.358112   -0.000000
C           0.007958    1.467363   -0.000000
C          -0.033857   -1.433678   -0.000000
C          -1.277417    0.692627    0.000000
C          -1.250222   -0.736136    0.000000
C           1.268042    0.665647    0.000000
C           1.245793   -0.724080    0.000000
H          -2.504142    2.453915   -0.000000
H          -4.648031    1.222566   -0.000000
H          -4.638434   -1.267012   -0.000000
H          -2.499866   -2.494765    0.000000
H          -0.020903   -2.514718   -0.000000
H           2.474892   -2.494771   -0.000000
H           4.629751   -1.291729    0.000000
H           4.671519    1.203013   -0.000000
H           2.523778    2.441775   -0.000000
H           0.021327    2.150093    0.863883
H           0.021327    2.150093   -0.863883
                    25
 energy=  -539.941332164054     
C          -2.500184    1.367051   -0.000000
C          -3.715516    0.675936    0.000000
C          -3.703392   -0.723398    0.000000
C          -2.497173   -1.412997   -0.000000
C           2.468720   -1.409990   -0.000000
C           3.713348   -0.716140    0.000000
C           3.731839    0.668913   -0.000000
C           2.524290    1.361796   -0.000000
C           0.004523    1.465796   -0.000000
C          -0.025422   -1.434257   -0.000000
C          -1.278312    0.689670    0.000000
C          -1.247831   -0.736569    0.000000
C           1.267758    0.668568    0.000000
C           1.249287   -0.724648    0.000000
H          -2.508169    2.452091    0.000000
H          -4.653732    1.219036   -0.000000
H          -4.637356   -1.272299   -0.000000
H          -2.495329   -2.495493   -0.000000
H          -0.012034   -2.515615   -0.000000
H           2.481021   -2.495276    0.000000
H           4.633080   -1.285921   -0.000000
H           4.667279    1.208349   -0.000000
H           2.519293    2.445648   -0.000000
H           0.012798    2.149886    0.863817
H           0.012798    2.149886   -0.863817
                    25
 energy=  -539.940525228251     
C          -2.505572    1.365525   -0.000000
C          -3.720736    0.673883    0.000000
C          -3.705386   -0.723342    0.000000
C          -2.491153   -1.412933   -0.000000
C           2.475347   -1.410747   -0.000000
C           3.713003   -0.715708    0.000000
C           3.727983    0.671924   -0.000000
C           2.518483    1.365062    0.000000
C           0.001476    1.464062   -0.000000
C          -0.014018   -1.435022   -0.000000
C          -1.277548    0.685693    0.000000
C          -1.246771   -0.735596    0.000000
C           1.268885    0.673122   -0.000000
C           1.251659   -0.726670    0.000000
H          -2.511856    2.450926    0.000000
H          -4.659339    1.216138   -0.000000
H          -4.636911   -1.277185   -0.000000
H          -2.491131   -2.496485   -0.000000
H          -0.003825   -2.516832   -0.000000
H           2.486651   -2.496113    0.000000
H           4.636118   -1.280900   -0.000000
H           4.663521    1.213174    0.000000
H           2.515219    2.449303   -0.000000
H           0.004587    2.149908    0.863989
H           0.004587    2.149908   -0.863989
                    25
 energy=  -539.939700146847     
C          -2.511785    1.366739    0.000000
C          -3.725626    0.673569    0.000000
C          -3.710533   -0.720043    0.000000
C          -2.483385   -1.412878    0.000000
C           2.483385   -1.412878    0.000000
C           3.710533   -0.720043    0.000000
C           3.725626    0.673569    0.000000
C           2.511785    1.366739    0.000000
C           0.000000    1.463529    0.000000
C           0.000000   -1.436233    0.000000
C          -1.272777    0.680177    0.000000
C          -1.249361   -0.731798    0.000000
C           1.272777    0.680177    0.000000
C           1.249361   -0.731798    0.000000
H          -2.513532    2.452446    0.000000
H          -4.663413    1.215989    0.000000
H          -4.638645   -1.279965    0.000000
H          -2.489211   -2.498454    0.000000
H           0.000000   -2.518980    0.000000
H           2.489211   -2.498454    0.000000
H           4.638645   -1.279965    0.000000
H           4.663413    1.215989    0.000000
H           2.513532    2.452446    0.000000
H           0.000000    2.150818    0.865287
H           0.000000    2.150818   -0.865287
