                    25
 energy=  -539.942978571336     
C          -2.473327    1.383560    0.000000
C          -3.686888    0.693453    0.000000
C          -3.702976   -0.708416    0.000000
C          -2.521841   -1.408948    0.000000
C           2.437446   -1.410162    0.000000
C           3.704911   -0.734802    0.000000
C           3.753503    0.643584    0.000000
C           2.551221    1.336534    0.000000
C           0.028793    1.473726    0.000000
C          -0.071279   -1.430625    0.000000
C          -1.268568    0.706615    0.000000
C          -1.265655   -0.729842    0.000000
C           1.273269    0.653425    0.000000
C           1.225901   -0.724617    0.000000
H          -2.480881    2.465810    0.000000
H          -4.616240    1.244130    0.000000
H          -4.646128   -1.235966    0.000000
H          -2.525617   -2.490129    0.000000
H          -0.071469   -2.510091    0.000000
H           2.439631   -2.492647    0.000000
H           4.609249   -1.325920    0.000000
H           4.695052    1.170884    0.000000
H           2.549678    2.418893    0.000000
H           0.068962    2.151659    0.864319
H           0.068962    2.151659   -0.864319
                    25
 energy=  -539.942950972479     
C          -2.476795    1.381146   -0.000000
C          -3.690684    0.690813    0.000000
C          -3.702857   -0.710847   -0.000000
C          -2.518711   -1.409855   -0.000000
C           2.441593   -1.409911    0.000000
C           3.706231   -0.731848   -0.000000
C           3.750719    0.647296   -0.000000
C           2.547864    1.340123   -0.000000
C           0.025390    1.472786   -0.000000
C          -0.065699   -1.431179   -0.000000
C          -1.269989    0.704590    0.000000
C          -1.263091   -0.731168    0.000000
C           1.272035    0.655332   -0.000000
C           1.228967   -0.724312    0.000000
H          -2.484757    2.463778    0.000000
H          -4.621394    1.240539   -0.000000
H          -4.644721   -1.241051    0.000000
H          -2.521453   -2.490946    0.000000
H          -0.063278   -2.510689   -0.000000
H           2.445427   -2.492824    0.000000
H           4.612584   -1.320265   -0.000000
H           4.691252    1.176291    0.000000
H           2.545468    2.422503   -0.000000
H           0.061268    2.151316    0.864162
H           0.061267    2.151315   -0.864161
                    25
 energy=  -539.942864721226     
C          -2.480374    1.378796    0.000000
C          -3.694428    0.688282   -0.000000
C          -3.702693   -0.713289   -0.000000
C          -2.515626   -1.410627    0.000000
C           2.445693   -1.409642   -0.000000
C           3.707596   -0.728850    0.000000
C           3.747868    0.650966   -0.000000
C           2.544431    1.343571    0.000000
C           0.021933    1.471840   -0.000000
C          -0.060006   -1.431627    0.000000
C          -1.271580    0.702399   -0.000000
C          -1.260599   -0.732331   -0.000000
C           1.271131    0.657132   -0.000000
C           1.232179   -0.724056    0.000000
H          -2.488556    2.461728    0.000000
H          -4.626534    1.236911    0.000000
H          -4.643389   -1.246216    0.000000
H          -2.517248   -2.491771   -0.000000
H          -0.055026   -2.511408    0.000000
H           2.451189   -2.493043   -0.000000
H           4.615962   -1.314546   -0.000000
H           4.687354    1.181592    0.000000
H           2.541195    2.426214    0.000000
H           0.053544    2.151040    0.864101
H           0.053544    2.151040   -0.864101
                    25
 energy=  -539.942729866171     
C          -2.484114    1.376356   -0.000000
C          -3.698225    0.685708    0.000000
C          -3.702560   -0.715560   -0.000000
C          -2.512554   -1.411304    0.000000
C           2.449934   -1.409517    0.000000
C           3.709013   -0.725985   -0.000000
C           3.745004    0.654674    0.000000
C           2.540882    1.347198    0.000000
C           0.018369    1.470895   -0.000000
C          -0.054291   -1.432155    0.000000
C          -1.273307    0.700163    0.000000
C          -1.258174   -0.733413   -0.000000
C           1.270228    0.659103   -0.000000
C           1.235471   -0.723868   -0.000000
H          -2.492402    2.459601    0.000000
H          -4.631529    1.233142   -0.000000
H          -4.641963   -1.251341    0.000000
H          -2.513012   -2.492559   -0.000000
H          -0.046693   -2.512281   -0.000000
H           2.457019   -2.493397    0.000000
H           4.619425   -1.308815    0.000000
H           4.683527    1.186981   -0.000000
H           2.536912    2.430052    0.000000
H           0.045731    2.150800    0.864044
H           0.045731    2.150801   -0.864044
                    25
 energy=  -539.942537095026     
C          -2.487726    1.373893   -0.000000
C          -3.702116    0.683129    0.000000
C          -3.702356   -0.718026   -0.000000
C          -2.509244   -1.411992   -0.000000
C           2.454061   -1.409322    0.000000
C           3.710345   -0.723103   -0.000000
C           3.742055    0.658410    0.000000
C           2.537172    1.350780    0.000000
C           0.014829    1.469851    0.000000
C          -0.048384   -1.432568    0.000000
C          -1.274889    0.697793    0.000000
C          -1.255514   -0.734571    0.000000
C           1.269242    0.660926   -0.000000
C           1.238733   -0.723667   -0.000000
H          -2.496293    2.457531   -0.000000
H          -4.636843    1.229465    0.000000
H          -4.640614   -1.256598   -0.000000
H          -2.508690   -2.493288    0.000000
H          -0.038209   -2.512896   -0.000000
H           2.462933   -2.493619   -0.000000
H           4.622918   -1.303020    0.000000
H           4.679637    1.192446   -0.000000
H           2.532540    2.433928   -0.000000
H           0.037784    2.150496    0.863951
H           0.037784    2.150497   -0.863951
                    25
 energy=  -539.942282844133     
C          -2.491531    1.371410    0.000000
C          -3.706173    0.680508    0.000000
C          -3.702227   -0.720442    0.000000
C          -2.505866   -1.412659    0.000000
C           2.458445   -1.409176    0.000000
C           3.711719   -0.720140   -0.000000
C           3.738965    0.662189    0.000000
C           2.533396    1.354473   -0.000000
C           0.011236    1.468751    0.000000
C          -0.042117   -1.433068    0.000000
C          -1.276517    0.695412   -0.000000
C          -1.252815   -0.735713   -0.000000
C           1.268313    0.662920    0.000000
C           1.242216   -0.723494    0.000000
H          -2.500300    2.455450   -0.000000
H          -4.642301    1.225703    0.000000
H          -4.639245   -1.261968   -0.000000
H          -2.504246   -2.494073    0.000000
H          -0.029481   -2.513672    0.000000
H           2.469017   -2.493918   -0.000000
H           4.626432   -1.297052    0.000000
H           4.675526    1.197972   -0.000000
H           2.528052    2.437857   -0.000000
H           0.029584    2.150213    0.863862
H           0.029585    2.150212   -0.863862
                    25
 energy=  -539.941945667037     
C          -2.495506    1.368922   -0.000000
C          -3.710437    0.677911    0.000000
C          -3.702237   -0.722657    0.000000
C          -2.502214   -1.413180   -0.000000
C           2.463058   -1.409155    0.000000
C           3.712987   -0.717326   -0.000000
C           3.735666    0.665913    0.000000
C           2.529358    1.358235   -0.000000
C           0.007632    1.467481   -0.000000
C          -0.035243   -1.433590   -0.000000
C          -1.278040    0.692904    0.000000
C          -1.250101   -0.736698    0.000000
C           1.267493    0.665136    0.000000
C           1.245841   -0.723470   -0.000000
H          -2.504367    2.453376    0.000000
H          -4.647875    1.221941   -0.000000
H          -4.637918   -1.267361   -0.000000
H          -2.499705   -2.494823   -0.000000
H          -0.020575   -2.514496   -0.000000
H           2.475201   -2.494286   -0.000000
H           4.629932   -1.291046    0.000000
H           4.671297    1.203504   -0.000000
H           2.523499    2.441831   -0.000000
H           0.021176    2.149930    0.863750
H           0.021176    2.149930   -0.863750
                    25
 energy=  -539.941448585808     
C          -2.500017    1.366534   -0.000000
C          -3.715259    0.675382    0.000000
C          -3.702741   -0.724306    0.000000
C          -2.497675   -1.413412   -0.000000
C           2.468409   -1.409417   -0.000000
C           3.713844   -0.715044    0.000000
C           3.731912    0.669513   -0.000000
C           2.524583    1.362059    0.000000
C           0.004067    1.465870   -0.000000
C          -0.026621   -1.434172   -0.000000
C          -1.279041    0.689887    0.000000
C          -1.247528   -0.737203    0.000000
C           1.267146    0.668067    0.000000
C           1.249534   -0.723988    0.000000
H          -2.508546    2.451467    0.000000
H          -4.653797    1.218279   -0.000000
H          -4.636783   -1.272836   -0.000000
H          -2.494989   -2.495542   -0.000000
H          -0.011352   -2.515413   -0.000000
H           2.481565   -2.494808    0.000000
H           4.633374   -1.285010   -0.000000
H           4.666859    1.209018    0.000000
H           2.518839    2.445845   -0.000000
H           0.012325    2.149700    0.863662
H           0.012325    2.149700   -0.863662
                    25
 energy=  -539.940576736486     
C          -2.505551    1.365119   -0.000000
C          -3.720719    0.673494    0.000000
C          -3.704951   -0.723972    0.000000
C          -2.491402   -1.413160   -0.000000
C           2.475239   -1.410436   -0.000000
C           3.713377   -0.714940   -0.000000
C           3.727906    0.672370   -0.000000
C           2.518577    1.365360    0.000000
C           0.001109    1.464058    0.000000
C          -0.014581   -1.434989   -0.000000
C          -1.278100    0.685800    0.000000
C          -1.246415   -0.736046    0.000000
C           1.268442    0.672832   -0.000000
C           1.252019   -0.726235    0.000000
H          -2.512206    2.450504    0.000000
H          -4.659566    1.215588   -0.000000
H          -4.636540   -1.277662   -0.000000
H          -2.490778   -2.496518   -0.000000
H          -0.003129   -2.516746   -0.000000
H           2.487170   -2.495873   -0.000000
H           4.636398   -1.280187   -0.000000
H           4.663127    1.213726    0.000000
H           2.514806    2.449549   -0.000000
H           0.004037    2.149790    0.863889
H           0.004038    2.149790   -0.863889
                    25
 energy=  -539.939700146847     
C          -2.511785    1.366739    0.000000
C          -3.725626    0.673569    0.000000
C          -3.710533   -0.720043    0.000000
C          -2.483385   -1.412878    0.000000
C           2.483385   -1.412878    0.000000
C           3.710533   -0.720043    0.000000
C           3.725626    0.673569    0.000000
C           2.511785    1.366739    0.000000
C           0.000000    1.463529    0.000000
C           0.000000   -1.436233    0.000000
C          -1.272777    0.680177    0.000000
C          -1.249361   -0.731798    0.000000
C           1.272777    0.680177    0.000000
C           1.249361   -0.731798    0.000000
H          -2.513532    2.452446    0.000000
H          -4.663413    1.215989    0.000000
H          -4.638645   -1.279965    0.000000
H          -2.489211   -2.498454    0.000000
H           0.000000   -2.518980    0.000000
H           2.489211   -2.498454    0.000000
H           4.638645   -1.279965    0.000000
H           4.663413    1.215989    0.000000
H           2.513532    2.452446    0.000000
H           0.000000    2.150818    0.865287
H           0.000000    2.150818   -0.865287
