                    25
 energy=  -539.942978571336     
C          -2.473327    1.383560    0.000000
C          -3.686888    0.693453    0.000000
C          -3.702976   -0.708416    0.000000
C          -2.521841   -1.408948    0.000000
C           2.437446   -1.410162    0.000000
C           3.704911   -0.734802    0.000000
C           3.753503    0.643584    0.000000
C           2.551221    1.336534    0.000000
C           0.028793    1.473726    0.000000
C          -0.071279   -1.430625    0.000000
C          -1.268568    0.706615    0.000000
C          -1.265655   -0.729842    0.000000
C           1.273269    0.653425    0.000000
C           1.225901   -0.724617    0.000000
H          -2.480881    2.465810    0.000000
H          -4.616240    1.244130    0.000000
H          -4.646128   -1.235966    0.000000
H          -2.525617   -2.490129    0.000000
H          -0.071469   -2.510091    0.000000
H           2.439631   -2.492647    0.000000
H           4.609249   -1.325920    0.000000
H           4.695052    1.170884    0.000000
H           2.549678    2.418893    0.000000
H           0.068962    2.151659    0.864319
H           0.068962    2.151659   -0.864319
                    25
 energy=  -539.942927082491     
C          -2.477306    1.381532   -0.000000
C          -3.691107    0.691160    0.000000
C          -3.703482   -0.710119   -0.000000
C          -2.517967   -1.409482   -0.000000
C           2.442198   -1.410366    0.000000
C           3.705783   -0.732728   -0.000000
C           3.750445    0.646988    0.000000
C           2.547230    1.340004    0.000000
C           0.025551    1.472648   -0.000000
C          -0.064086   -1.431226    0.000000
C          -1.269390    0.704025    0.000000
C          -1.263401   -0.730503    0.000000
C           1.272794    0.655928   -0.000000
C           1.228844   -0.725013    0.000000
H          -2.484596    2.464202    0.000000
H          -4.621564    1.240922   -0.000000
H          -4.645160   -1.240915    0.000000
H          -2.521501   -2.490960    0.000000
H          -0.063392   -2.510951    0.000000
H           2.445254   -2.493199    0.000000
H           4.612536   -1.320658    0.000000
H           4.691378    1.175978    0.000000
H           2.545582    2.422610    0.000000
H           0.061228    2.151501    0.864350
H           0.061228    2.151501   -0.864350
                    25
 energy=  -539.942790584643     
C          -2.481251    1.379495    0.000000
C          -3.695308    0.688926   -0.000000
C          -3.703977   -0.711834   -0.000000
C          -2.514041   -1.409967    0.000000
C           2.446867   -1.410546   -0.000000
C           3.706660   -0.730691    0.000000
C           3.747390    0.650394   -0.000000
C           2.543082    1.343422    0.000000
C           0.022295    1.471564   -0.000000
C          -0.056831   -1.431749    0.000000
C          -1.270248    0.701329   -0.000000
C          -1.261151   -0.731058   -0.000000
C           1.272408    0.658372   -0.000000
C           1.231803   -0.725395   -0.000000
H          -2.488302    2.462583    0.000000
H          -4.626904    1.237710   -0.000000
H          -4.644241   -1.245901   -0.000000
H          -2.517379   -2.491807   -0.000000
H          -0.055296   -2.511830   -0.000000
H           2.450879   -2.493754   -0.000000
H           4.615862   -1.315395   -0.000000
H           4.687723    1.181069    0.000000
H           2.541480    2.426368    0.000000
H           0.053483    2.151342    0.864389
H           0.053483    2.151342   -0.864389
                    25
 energy=  -539.942503026919     
C          -2.485466    1.377404   -0.000000
C          -3.699464    0.686614   -0.000000
C          -3.704519   -0.713273   -0.000000
C          -2.510234   -1.410377    0.000000
C           2.451798   -1.410817    0.000000
C           3.707574   -0.728649   -0.000000
C           3.744285    0.653774    0.000000
C           2.539047    1.346913    0.000000
C           0.019000    1.470436   -0.000000
C          -0.049501   -1.432405    0.000000
C          -1.271220    0.698719    0.000000
C          -1.259138   -0.731501   -0.000000
C           1.272107    0.661194   -0.000000
C           1.234775   -0.725952   -0.000000
H          -2.491984    2.460905   -0.000000
H          -4.632048    1.234392    0.000000
H          -4.643228   -1.250840    0.000000
H          -2.513245   -2.492708    0.000000
H          -0.047203   -2.512897   -0.000000
H           2.456484   -2.494417    0.000000
H           4.619149   -1.310130   -0.000000
H           4.684055    1.186145    0.000000
H           2.537370    2.430111    0.000000
H           0.045742    2.151227    0.864461
H           0.045742    2.151227   -0.864461
                    25
 energy=  -539.942159477382     
C          -2.489486    1.375348   -0.000000
C          -3.703709    0.684344   -0.000000
C          -3.705032   -0.714899    0.000000
C          -2.506210   -1.410804    0.000000
C           2.456551   -1.411049    0.000000
C           3.708400   -0.726748   -0.000000
C           3.741220    0.657203   -0.000000
C           2.534774    1.350376   -0.000000
C           0.015727    1.469298    0.000000
C          -0.042117   -1.432949    0.000000
C          -1.272048    0.695919    0.000000
C          -1.256945   -0.731990    0.000000
C           1.271754    0.663780    0.000000
C           1.237691   -0.726462   -0.000000
H          -2.495698    2.459294    0.000000
H          -4.637374    1.231161   -0.000000
H          -4.642300   -1.255819    0.000000
H          -2.509109   -2.493530    0.000000
H          -0.039076   -2.513764    0.000000
H           2.462126   -2.494972    0.000000
H           4.622490   -1.304865   -0.000000
H           4.680435    1.191268   -0.000000
H           2.533263    2.433907    0.000000
H           0.037963    2.151079    0.864505
H           0.037963    2.151079   -0.864505
                    25
 energy=  -539.941722950371     
C          -2.493605    1.373319   -0.000000
C          -3.708005    0.682072    0.000000
C          -3.705613   -0.716452   -0.000000
C          -2.502150   -1.411227   -0.000000
C           2.461433   -1.411291   -0.000000
C           3.709210   -0.724815    0.000000
C           3.738081    0.660589    0.000000
C           2.530532    1.353832   -0.000000
C           0.012468    1.468126    0.000000
C          -0.034553   -1.433535    0.000000
C          -1.272820    0.693131    0.000000
C          -1.254840   -0.732439   -0.000000
C           1.271472    0.666484    0.000000
C           1.240617   -0.727018    0.000000
H          -2.499415    2.457696   -0.000000
H          -4.642697    1.227921   -0.000000
H          -4.641372   -1.260800    0.000000
H          -2.504963   -2.494382   -0.000000
H          -0.030941   -2.514689    0.000000
H           2.467772   -2.495552   -0.000000
H           4.625790   -1.299580    0.000000
H           4.676763    1.196368   -0.000000
H           2.529141    2.437667    0.000000
H           0.030156    2.150946    0.864560
H           0.030156    2.150946   -0.864560
                    25
 energy=  -539.941199585759     
C          -2.497834    1.371331   -0.000000
C          -3.712333    0.679805    0.000000
C          -3.706323   -0.717831    0.000000
C          -2.497936   -1.411617   -0.000000
C           2.466459   -1.411559    0.000000
C           3.709914   -0.723007   -0.000000
C           3.734901    0.663941    0.000000
C           2.526166    1.357256   -0.000000
C           0.009222    1.466895   -0.000000
C          -0.026687   -1.434150   -0.000000
C          -1.273466    0.690257   -0.000000
C          -1.252906   -0.732734    0.000000
C           1.271314    0.669386    0.000000
C           1.243450   -0.727719    0.000000
H          -2.503115    2.456104   -0.000000
H          -4.647977    1.224688   -0.000000
H          -4.640456   -1.265751   -0.000000
H          -2.500829   -2.495255    0.000000
H          -0.022835   -2.515637    0.000000
H           2.473395   -2.496138   -0.000000
H           4.629060   -1.294326    0.000000
H           4.673106    1.201440   -0.000000
H           2.525036    2.441406    0.000000
H           0.022353    2.150820    0.864616
H           0.022353    2.150820   -0.864616
                    25
 energy=  -539.940613987792     
C          -2.502209    1.369452   -0.000000
C          -3.716703    0.677564   -0.000000
C          -3.707226   -0.718976    0.000000
C          -2.493456   -1.411970    0.000000
C           2.471692   -1.411850   -0.000000
C           3.710410   -0.721436    0.000000
C           3.731685    0.667215    0.000000
C           2.521619    1.360566   -0.000000
C           0.006038    1.465622   -0.000000
C          -0.018404   -1.434762   -0.000000
C          -1.273825    0.687189    0.000000
C          -1.251232   -0.732821    0.000000
C           1.271395    0.672521    0.000000
C           1.246047   -0.728636    0.000000
H          -2.506755    2.454573   -0.000000
H          -4.653186    1.221525   -0.000000
H          -4.639591   -1.270614    0.000000
H          -2.496762   -2.496105   -0.000000
H          -0.014858   -2.516558   -0.000000
H           2.478924   -2.496707    0.000000
H           4.632239   -1.289164    0.000000
H           4.669505    1.206414    0.000000
H           2.521002    2.445053    0.000000
H           0.014628    2.150706    0.864679
H           0.014628    2.150706   -0.864679
                    25
 energy=  -539.940057064240     
C          -2.506757    1.367744   -0.000000
C          -3.721084    0.675420   -0.000000
C          -3.708415   -0.719833   -0.000000
C          -2.488794   -1.412326   -0.000000
C           2.477187   -1.412134    0.000000
C           3.710652   -0.720082    0.000000
C           3.728420    0.670359    0.000000
C           2.517018    1.363674    0.000000
C           0.002949    1.464392   -0.000000
C          -0.009612   -1.435392   -0.000000
C          -1.273851    0.684046    0.000000
C          -1.249853   -0.732662    0.000000
C           1.271791    0.675860   -0.000000
C           1.248408   -0.729740   -0.000000
H          -2.510295    2.453114   -0.000000
H          -4.658295    1.218474    0.000000
H          -4.638808   -1.275360    0.000000
H          -2.492798   -2.497033   -0.000000
H          -0.007093   -2.517544    0.000000
H           2.484303   -2.497263   -0.000000
H           4.635268   -1.284136    0.000000
H           4.665928    1.211207   -0.000000
H           2.517068    2.448564   -0.000000
H           0.007043    2.150606    0.864757
H           0.007043    2.150606   -0.864757
                    25
 energy=  -539.939700146847     
C          -2.511785    1.366739    0.000000
C          -3.725626    0.673569    0.000000
C          -3.710533   -0.720043    0.000000
C          -2.483385   -1.412878    0.000000
C           2.483385   -1.412878    0.000000
C           3.710533   -0.720043    0.000000
C           3.725626    0.673569    0.000000
C           2.511785    1.366739    0.000000
C           0.000000    1.463529    0.000000
C           0.000000   -1.436233    0.000000
C          -1.272777    0.680177    0.000000
C          -1.249361   -0.731798    0.000000
C           1.272777    0.680177    0.000000
C           1.249361   -0.731798    0.000000
H          -2.513532    2.452446    0.000000
H          -4.663413    1.215989    0.000000
H          -4.638645   -1.279965    0.000000
H          -2.489211   -2.498454    0.000000
H           0.000000   -2.518980    0.000000
H           2.489211   -2.498454    0.000000
H           4.638645   -1.279965    0.000000
H           4.663413    1.215989    0.000000
H           2.513532    2.452446    0.000000
H           0.000000    2.150818    0.865287
H           0.000000    2.150818   -0.865287
