                    25
 energy=  -539.942978571336     
C          -2.473327    1.383560    0.000000
C          -3.686888    0.693453    0.000000
C          -3.702976   -0.708416    0.000000
C          -2.521841   -1.408948    0.000000
C           2.437446   -1.410162    0.000000
C           3.704911   -0.734802    0.000000
C           3.753503    0.643584    0.000000
C           2.551221    1.336534    0.000000
C           0.028793    1.473726    0.000000
C          -0.071279   -1.430625    0.000000
C          -1.268568    0.706615    0.000000
C          -1.265655   -0.729842    0.000000
C           1.273269    0.653425    0.000000
C           1.225901   -0.724617    0.000000
H          -2.480881    2.465810    0.000000
H          -4.616240    1.244130    0.000000
H          -4.646128   -1.235966    0.000000
H          -2.525617   -2.490129    0.000000
H          -0.071469   -2.510091    0.000000
H           2.439631   -2.492647    0.000000
H           4.609249   -1.325920    0.000000
H           4.695052    1.170884    0.000000
H           2.549678    2.418893    0.000000
H           0.068962    2.151659    0.864319
H           0.068962    2.151659   -0.864319
                    25
 energy=  -539.942916449401     
C          -2.477087    1.381378   -0.000000
C          -3.690935    0.691049    0.000000
C          -3.703224   -0.710398   -0.000000
C          -2.518297   -1.409607   -0.000000
C           2.441951   -1.410218   -0.000000
C           3.705981   -0.732371   -0.000000
C           3.750554    0.647084    0.000000
C           2.547520    1.340052    0.000000
C           0.025498    1.472710   -0.000000
C          -0.064743   -1.431213   -0.000000
C          -1.269663    0.704299    0.000000
C          -1.263220   -0.730784   -0.000000
C           1.272484    0.655662   -0.000000
C           1.228956   -0.724716    0.000000
H          -2.484651    2.464049    0.000000
H          -4.621528    1.240808   -0.000000
H          -4.644999   -1.240950    0.000000
H          -2.521477   -2.490926   -0.000000
H          -0.063337   -2.510859   -0.000000
H           2.445316   -2.493097    0.000000
H           4.612544   -1.320526    0.000000
H           4.691289    1.176053    0.000000
H           2.545541    2.422562   -0.000000
H           0.061238    2.151428    0.864271
H           0.061238    2.151428   -0.864271
                    25
 energy=  -539.942783314921     
C          -2.480875    1.379207    0.000000
C          -3.694958    0.688715    0.000000
C          -3.703422   -0.712406   -0.000000
C          -2.514729   -1.410176    0.000000
C           2.446378   -1.410247   -0.000000
C           3.707063   -0.729948    0.000000
C           3.747546    0.650576   -0.000000
C           2.543695    1.343479    0.000000
C           0.022165    1.471668    0.000000
C          -0.058116   -1.431701    0.000000
C          -1.270832    0.701843   -0.000000
C          -1.260788   -0.731618   -0.000000
C           1.271868    0.657831   -0.000000
C           1.232077   -0.724849   -0.000000
H          -2.488395    2.462275    0.000000
H          -4.626844    1.237470    0.000000
H          -4.643940   -1.246007    0.000000
H          -2.517308   -2.491735   -0.000000
H          -0.055152   -2.511663   -0.000000
H           2.451001   -2.493547    0.000000
H           4.615889   -1.315102   -0.000000
H           4.687514    1.181208    0.000000
H           2.541364    2.426312   -0.000000
H           0.053481    2.151221    0.864267
H           0.053481    2.151221   -0.864267
                    25
 energy=  -539.942627319599     
C          -2.484878    1.376996   -0.000000
C          -3.699016    0.686346    0.000000
C          -3.703697   -0.714190   -0.000000
C          -2.511240   -1.410659    0.000000
C           2.451012   -1.410408    0.000000
C           3.708205   -0.727594   -0.000000
C           3.744541    0.654066    0.000000
C           2.539846    1.347055    0.000000
C           0.018761    1.470634   -0.000000
C          -0.051450   -1.432307    0.000000
C          -1.272158    0.699396    0.000000
C          -1.258527   -0.732327   -0.000000
C           1.271320    0.660237   -0.000000
C           1.235277   -0.725048    0.000000
H          -2.492146    2.460416    0.000000
H          -4.631935    1.233988   -0.000000
H          -4.642762   -1.250996    0.000000
H          -2.513122   -2.492558   -0.000000
H          -0.046941   -2.512683   -0.000000
H           2.456705   -2.494139    0.000000
H           4.619242   -1.309674   -0.000000
H           4.683757    1.186381    0.000000
H           2.537190    2.430109    0.000000
H           0.045691    2.151060    0.864282
H           0.045691    2.151060   -0.864282
                    25
 energy=  -539.942357873177     
C          -2.488698    1.374764   -0.000000
C          -3.703142    0.683986    0.000000
C          -3.703889   -0.716170   -0.000000
C          -2.507515   -1.411141    0.000000
C           2.455466   -1.410516    0.000000
C           3.709251   -0.725298   -0.000000
C           3.741479    0.657579    0.000000
C           2.535820    1.350578   -0.000000
C           0.015389    1.469518    0.000000
C          -0.044662   -1.432784    0.000000
C          -1.273320    0.696795    0.000000
C          -1.256038   -0.733121    0.000000
C           1.270675    0.662455    0.000000
C           1.238415   -0.725254   -0.000000
H          -2.495936    2.458644    0.000000
H          -4.637311    1.230620   -0.000000
H          -4.641694   -1.256074    0.000000
H          -2.508899   -2.493302    0.000000
H          -0.038646   -2.513441    0.000000
H           2.462465   -2.494597   -0.000000
H           4.622652   -1.304229    0.000000
H           4.680024    1.191626   -0.000000
H           2.532976    2.433959    0.000000
H           0.037819    2.150852    0.864268
H           0.037819    2.150852   -0.864268
                    25
 energy=  -539.942011535553     
C          -2.492661    1.372545   -0.000000
C          -3.707379    0.681617    0.000000
C          -3.704165   -0.718067   -0.000000
C          -2.503757   -1.411610    0.000000
C           2.460107   -1.410653   -0.000000
C           3.710309   -0.722956    0.000000
C           3.738320    0.661076    0.000000
C           2.531792    1.354149   -0.000000
C           0.012022    1.468353    0.000000
C          -0.037605   -1.433334    0.000000
C          -1.274472    0.694211   -0.000000
C          -1.253595   -0.733874    0.000000
C           1.270101    0.664832   -0.000000
C           1.241678   -0.725495   -0.000000
H          -2.499767    2.456886   -0.000000
H          -4.642727    1.227214   -0.000000
H          -4.640621   -1.261195    0.000000
H          -2.504625   -2.494100   -0.000000
H          -0.030262   -2.514316    0.000000
H           2.468287   -2.495107   -0.000000
H           4.626025   -1.298705    0.000000
H           4.676161    1.196864   -0.000000
H           2.528711    2.437787    0.000000
H           0.029839    2.150665    0.864265
H           0.029839    2.150665   -0.864265
                    25
 energy=  -539.941567915171     
C          -2.496768    1.370354   -0.000000
C          -3.711726    0.679258    0.000000
C          -3.704599   -0.719738    0.000000
C          -2.499767   -1.411990   -0.000000
C           2.464937   -1.410861    0.000000
C           3.711240   -0.720784   -0.000000
C           3.735056    0.664523    0.000000
C           2.527554    1.357730   -0.000000
C           0.008673    1.467060   -0.000000
C          -0.030062   -1.433917   -0.000000
C          -1.275482    0.691511    0.000000
C          -1.251303   -0.734429    0.000000
C           1.269670    0.667467    0.000000
C           1.244919   -0.725923    0.000000
H          -2.503606    2.455136    0.000000
H          -4.648140    1.223809   -0.000000
H          -4.639583   -1.266300   -0.000000
H          -2.500330   -2.494917    0.000000
H          -0.021847   -2.515235    0.000000
H           2.474124   -2.495637   -0.000000
H           4.629366   -1.293193    0.000000
H           4.672281    1.202088   -0.000000
H           2.524442    2.441608    0.000000
H           0.021789    2.150491    0.864260
H           0.021789    2.150491   -0.864260
                    25
 energy=  -539.941001701023     
C          -2.501107    1.368328   -0.000000
C          -3.716201    0.676964    0.000000
C          -3.705363   -0.720984   -0.000000
C          -2.495315   -1.412250   -0.000000
C           2.470096   -1.411147   -0.000000
C           3.711826   -0.719024    0.000000
C           3.731677    0.667807    0.000000
C           2.522989    1.361155   -0.000000
C           0.005452    1.465610   -0.000000
C          -0.021714   -1.434510   -0.000000
C          -1.276035    0.688525    0.000000
C          -1.249383   -0.734624    0.000000
C           1.269610    0.670523    0.000000
C           1.247889   -0.726723    0.000000
H          -2.507356    2.453511    0.000000
H          -4.653474    1.220538   -0.000000
H          -4.638649   -1.271263    0.000000
H          -2.496122   -2.495700   -0.000000
H          -0.013615   -2.516125    0.000000
H           2.479826   -2.496159    0.000000
H           4.632537   -1.287834   -0.000000
H           4.668460    1.207133   -0.000000
H           2.520278    2.445271    0.000000
H           0.013825    2.150348    0.864269
H           0.013825    2.150348   -0.864269
                    25
 energy=  -539.940307255585     
C          -2.505987    1.366708   -0.000000
C          -3.720833    0.674812    0.000000
C          -3.706884   -0.721419    0.000000
C          -2.490089   -1.412460   -0.000000
C           2.476060   -1.411533   -0.000000
C           3.711760   -0.718051    0.000000
C           3.728227    0.670886   -0.000000
C           2.517886    1.364236    0.000000
C           0.002404    1.464145    0.000000
C          -0.011918   -1.435167   -0.000000
C          -1.275687    0.685024    0.000000
C          -1.248259   -0.734087    0.000000
C           1.270372    0.674394   -0.000000
C           1.250145   -0.728213    0.000000
H          -2.510920    2.452110    0.000000
H          -4.658659    1.217520   -0.000000
H          -4.637945   -1.276008    0.000000
H          -2.492111   -2.496626   -0.000000
H          -0.005760   -2.517140    0.000000
H           2.485249   -2.496713    0.000000
H           4.635475   -1.282786   -0.000000
H           4.664781    1.211871    0.000000
H           2.516322    2.448725   -0.000000
H           0.006076    2.150271    0.864350
H           0.006076    2.150271   -0.864351
                    25
 energy=  -539.939700146847     
C          -2.511785    1.366739    0.000000
C          -3.725626    0.673569    0.000000
C          -3.710533   -0.720043    0.000000
C          -2.483385   -1.412878    0.000000
C           2.483385   -1.412878    0.000000
C           3.710533   -0.720043    0.000000
C           3.725626    0.673569    0.000000
C           2.511785    1.366739    0.000000
C           0.000000    1.463529    0.000000
C           0.000000   -1.436233    0.000000
C          -1.272777    0.680177    0.000000
C          -1.249361   -0.731798    0.000000
C           1.272777    0.680177    0.000000
C           1.249361   -0.731798    0.000000
H          -2.513532    2.452446    0.000000
H          -4.663413    1.215989    0.000000
H          -4.638645   -1.279965    0.000000
H          -2.489211   -2.498454    0.000000
H           0.000000   -2.518980    0.000000
H           2.489211   -2.498454    0.000000
H           4.638645   -1.279965    0.000000
H           4.663413    1.215989    0.000000
H           2.513532    2.452446    0.000000
H           0.000000    2.150818    0.865287
H           0.000000    2.150818   -0.865287
